version 3
run General-0-20251029-22:35:28-42059
attr configname General
attr datetime 20251029-22:35:28
attr datetimef 20251029-223528
attr experiment General
attr inifile omnetpp.ini
attr iterationvars ""
attr iterationvarsd ""
attr iterationvarsf ""
attr measurement ""
attr network inet.networks.tsn.TsnLinearNetwork
attr processid 42059
attr repetition 0
attr replication #0
attr resultdir results
attr runnumber 0
attr seedset 0
config image-path ../../omnetpp/inet-4.5.4/images
config network inet.networks.tsn.TsnLinearNetwork
config sim-time-limit 1s
config description "Traffic shaping using time-aware shapers"
config **.displayGateSchedules true
config **.gateFilter "\"**.eth[1].**\""
config **.gateScheduleVisualizer.height 16
config **.gateScheduleVisualizer.placementHint "\"top\""
config *.client.numApps 2
config *.client.app[*].typename UdpSourceApp
config *.client.app[*].io.destAddress "\"server\""
config *.client.app[0].display-name "speed/torque command"
config *.client.app[0].io.destPort 1000
config *.client.app[0].source.productionInterval exponential(1ms)
config *.client.app[0].source.packetLength "128B - 64B"
config *.client.app[1].display-name "brake command"
config *.client.app[1].io.destPort 1001
config *.client.app[1].source.productionInterval exponential(10ms)
config *.client.app[1].source.packetLength 256B
config *.server.numApps 2
config *.server.app[*].typename UdpSinkApp
config *.server.app[0].io.localPort 1000
config *.server.app[1].io.localPort 1001
config *.client.hasOutgoingStreams true
config *.client.bridging.streamIdentifier.identifier.mapping "[{stream: \"speed/torque command\", packetFilter: expr(udp.destPort == 1000)},\n                                                         {stream: \"brake command\", packetFilter: expr(udp.destPort == 1001)}]"
config *.client.bridging.streamCoder.encoder.mapping "[{stream: \"speed/torque command\", pcp: 1},\n                                                 {stream: \"brake command\", pcp: 7}]"
config *.switch.hasEgressTrafficShaping true
config *.switch.bridging.directionReverser.reverser.excludeEncapsulationProtocols "[\"ieee8021qctag\"]"
config *.switch.eth[*].macLayer.queue.numTrafficClasses 8
config *.switch.eth[*].macLayer.queue.*[1].display-name "speed/torque command"
config *.switch.eth[*].macLayer.queue.transmissionGate[1].offset 0ms
config *.switch.eth[*].macLayer.queue.transmissionGate[1].durations "[4ms, 6ms]"
config *.switch.eth[*].macLayer.queue.*[7].display-name "brake command"
config *.switch.eth[*].macLayer.queue.transmissionGate[7].offset 6ms
config *.switch.eth[*].macLayer.queue.transmissionGate[7].durations "[2ms, 8ms]"

par TsnLinearNetwork.client.ethg$o[0].channel typename "\"inet.node.ethernet.EthernetLink\""
par TsnLinearNetwork.client.ethg$o[0].channel disabled false
attr mutable ""
par TsnLinearNetwork.client.ethg$o[0].channel delay 5e-08s
attr mutable ""
attr unit s
par TsnLinearNetwork.client.ethg$o[0].channel datarate 0bps
attr mutable ""
attr unit bps
par TsnLinearNetwork.client.ethg$o[0].channel ber 0
attr mutable ""
par TsnLinearNetwork.client.ethg$o[0].channel per 0
attr mutable ""
par TsnLinearNetwork.client.ethg$o[0].channel length 10m
attr unit m
par TsnLinearNetwork.switch.ethg$o[0].channel typename "\"inet.node.ethernet.EthernetLink\""
par TsnLinearNetwork.switch.ethg$o[0].channel disabled false
attr mutable ""
par TsnLinearNetwork.switch.ethg$o[0].channel delay 5e-08s
attr mutable ""
attr unit s
par TsnLinearNetwork.switch.ethg$o[0].channel datarate 0bps
attr mutable ""
attr unit bps
par TsnLinearNetwork.switch.ethg$o[0].channel ber 0
attr mutable ""
par TsnLinearNetwork.switch.ethg$o[0].channel per 0
attr mutable ""
par TsnLinearNetwork.switch.ethg$o[0].channel length 10m
attr unit m
par TsnLinearNetwork.switch.ethg$o[1].channel typename "\"inet.node.ethernet.EthernetLink\""
par TsnLinearNetwork.switch.ethg$o[1].channel disabled false
attr mutable ""
par TsnLinearNetwork.switch.ethg$o[1].channel delay 5e-08s
attr mutable ""
attr unit s
par TsnLinearNetwork.switch.ethg$o[1].channel datarate 0bps
attr mutable ""
attr unit bps
par TsnLinearNetwork.switch.ethg$o[1].channel ber 0
attr mutable ""
par TsnLinearNetwork.switch.ethg$o[1].channel per 0
attr mutable ""
par TsnLinearNetwork.switch.ethg$o[1].channel length 10m
attr unit m
par TsnLinearNetwork.server.ethg$o[0].channel typename "\"inet.node.ethernet.EthernetLink\""
par TsnLinearNetwork.server.ethg$o[0].channel disabled false
attr mutable ""
par TsnLinearNetwork.server.ethg$o[0].channel delay 5e-08s
attr mutable ""
attr unit s
par TsnLinearNetwork.server.ethg$o[0].channel datarate 0bps
attr mutable ""
attr unit bps
par TsnLinearNetwork.server.ethg$o[0].channel ber 0
attr mutable ""
par TsnLinearNetwork.server.ethg$o[0].channel per 0
attr mutable ""
par TsnLinearNetwork.server.ethg$o[0].channel length 10m
attr unit m
par TsnLinearNetwork.visualizer.sceneVisualizer typename "\"inet.visualizer.canvas.scene.SceneCanvasVisualizer\""
par TsnLinearNetwork.visualizer.sceneVisualizer visualizationTargetModule "\"^.^\""
par TsnLinearNetwork.visualizer.sceneVisualizer visualizationSubjectModule "\"^.^\""
par TsnLinearNetwork.visualizer.sceneVisualizer tags "\"\""
par TsnLinearNetwork.visualizer.sceneVisualizer physicalEnvironmentModule "\"physicalEnvironment\""
par TsnLinearNetwork.visualizer.sceneVisualizer networkNodeVisualizerModule "\"^.networkNodeVisualizer\""
par TsnLinearNetwork.visualizer.sceneVisualizer axisLength "nan m"
attr mutable ""
attr unit m
par TsnLinearNetwork.visualizer.sceneVisualizer animationSpeed 0
par TsnLinearNetwork.visualizer.sceneVisualizer sceneMinX "nan m"
attr unit m
par TsnLinearNetwork.visualizer.sceneVisualizer sceneMinY "nan m"
attr unit m
par TsnLinearNetwork.visualizer.sceneVisualizer sceneMinZ "nan m"
attr unit m
par TsnLinearNetwork.visualizer.sceneVisualizer sceneMaxX "nan m"
attr unit m
par TsnLinearNetwork.visualizer.sceneVisualizer sceneMaxY "nan m"
attr unit m
par TsnLinearNetwork.visualizer.sceneVisualizer sceneMaxZ "nan m"
attr unit m
par TsnLinearNetwork.visualizer.sceneVisualizer zIndex 0
par TsnLinearNetwork.visualizer.sceneVisualizer viewAngle "\"x right y down z out\""
attr mutable ""
par TsnLinearNetwork.visualizer.sceneVisualizer viewScale "\"1 1\""
attr mutable ""
par TsnLinearNetwork.visualizer.sceneVisualizer viewTranslation "\"0 0\""
attr mutable ""
par TsnLinearNetwork.visualizer.sceneVisualizer descriptionFigure "\"\""
par TsnLinearNetwork.visualizer.physicalEnvironmentVisualizer typename "\"inet.visualizer.canvas.environment.PhysicalEnvironmentCanvasVisualizer\""
par TsnLinearNetwork.visualizer.physicalEnvironmentVisualizer visualizationTargetModule "\"^.^\""
par TsnLinearNetwork.visualizer.physicalEnvironmentVisualizer visualizationSubjectModule "\"^.^\""
par TsnLinearNetwork.visualizer.physicalEnvironmentVisualizer tags "\"\""
par TsnLinearNetwork.visualizer.physicalEnvironmentVisualizer physicalEnvironmentModule "\"physicalEnvironment\""
par TsnLinearNetwork.visualizer.physicalEnvironmentVisualizer displayObjects true
par TsnLinearNetwork.visualizer.physicalEnvironmentVisualizer zIndex 0
par TsnLinearNetwork.visualizer.networkNodeVisualizer typename "\"inet.visualizer.canvas.scene.NetworkNodeCanvasVisualizer\""
par TsnLinearNetwork.visualizer.networkNodeVisualizer visualizationTargetModule "\"^.^\""
par TsnLinearNetwork.visualizer.networkNodeVisualizer visualizationSubjectModule "\"^.^\""
par TsnLinearNetwork.visualizer.networkNodeVisualizer tags "\"\""
par TsnLinearNetwork.visualizer.networkNodeVisualizer nodeFilter "\"*\""
attr mutable ""
par TsnLinearNetwork.visualizer.networkNodeVisualizer annotationSpacing 4
par TsnLinearNetwork.visualizer.networkNodeVisualizer placementPenalty 10
par TsnLinearNetwork.visualizer.networkNodeVisualizer zIndex 0
par TsnLinearNetwork.visualizer.networkConnectionVisualizer typename "\"inet.visualizer.canvas.scene.NetworkConnectionCanvasVisualizer\""
par TsnLinearNetwork.visualizer.networkConnectionVisualizer visualizationTargetModule "\"^.^\""
par TsnLinearNetwork.visualizer.networkConnectionVisualizer visualizationSubjectModule "\"^.^\""
par TsnLinearNetwork.visualizer.networkConnectionVisualizer tags "\"\""
par TsnLinearNetwork.visualizer.networkConnectionVisualizer displayNetworkConnections true
par TsnLinearNetwork.visualizer.networkConnectionVisualizer nodeFilter "\"\""
attr mutable ""
par TsnLinearNetwork.visualizer.networkConnectionVisualizer lineColor "\"black\""
par TsnLinearNetwork.visualizer.networkConnectionVisualizer lineStyle "\"solid\""
par TsnLinearNetwork.visualizer.networkConnectionVisualizer lineWidth 1
par TsnLinearNetwork.visualizer.networkConnectionVisualizer zIndex 0
par TsnLinearNetwork.visualizer.mobilityVisualizer typename "\"inet.visualizer.canvas.mobility.MobilityCanvasVisualizer\""
par TsnLinearNetwork.visualizer.mobilityVisualizer visualizationTargetModule "\"^.^\""
par TsnLinearNetwork.visualizer.mobilityVisualizer visualizationSubjectModule "\"^.^\""
par TsnLinearNetwork.visualizer.mobilityVisualizer tags "\"\""
par TsnLinearNetwork.visualizer.mobilityVisualizer networkNodeVisualizerModule "\"^.networkNodeVisualizer\""
par TsnLinearNetwork.visualizer.mobilityVisualizer displayMobility true
par TsnLinearNetwork.visualizer.mobilityVisualizer animationSpeed 0
par TsnLinearNetwork.visualizer.mobilityVisualizer moduleFilter "\"**.mobility\""
attr mutable ""
par TsnLinearNetwork.visualizer.mobilityVisualizer displayPositions false
par TsnLinearNetwork.visualizer.mobilityVisualizer positionCircleRadius 4
par TsnLinearNetwork.visualizer.mobilityVisualizer positionCircleLineWidth 1
par TsnLinearNetwork.visualizer.mobilityVisualizer positionCircleLineColor "\"dark\""
par TsnLinearNetwork.visualizer.mobilityVisualizer positionCircleFillColor "\"dark\""
par TsnLinearNetwork.visualizer.mobilityVisualizer displayOrientations false
par TsnLinearNetwork.visualizer.mobilityVisualizer orientationPieRadius 32
par TsnLinearNetwork.visualizer.mobilityVisualizer orientationPieSize 0.2
par TsnLinearNetwork.visualizer.mobilityVisualizer orientationPieOpacity 0.25
par TsnLinearNetwork.visualizer.mobilityVisualizer orientationLineColor "\"black\""
par TsnLinearNetwork.visualizer.mobilityVisualizer orientationLineStyle "\"solid\""
par TsnLinearNetwork.visualizer.mobilityVisualizer orientationLineWidth 1
par TsnLinearNetwork.visualizer.mobilityVisualizer orientationFillColor "\"blue\""
par TsnLinearNetwork.visualizer.mobilityVisualizer displayVelocities false
par TsnLinearNetwork.visualizer.mobilityVisualizer velocityArrowScale 1
par TsnLinearNetwork.visualizer.mobilityVisualizer velocityLineColor "\"black\""
par TsnLinearNetwork.visualizer.mobilityVisualizer velocityLineStyle "\"solid\""
par TsnLinearNetwork.visualizer.mobilityVisualizer velocityLineWidth 1
par TsnLinearNetwork.visualizer.mobilityVisualizer displayMovementTrails false
par TsnLinearNetwork.visualizer.mobilityVisualizer movementTrailLineColor "\"dark\""
par TsnLinearNetwork.visualizer.mobilityVisualizer movementTrailLineStyle "\"solid\""
par TsnLinearNetwork.visualizer.mobilityVisualizer movementTrailLineWidth 1
par TsnLinearNetwork.visualizer.mobilityVisualizer trailLength 100
par TsnLinearNetwork.visualizer.mobilityVisualizer zIndex 0
par TsnLinearNetwork.visualizer.statisticVisualizer typename "\"inet.visualizer.canvas.common.StatisticCanvasVisualizer\""
par TsnLinearNetwork.visualizer.statisticVisualizer visualizationTargetModule "\"^.^\""
par TsnLinearNetwork.visualizer.statisticVisualizer visualizationSubjectModule "\"^.^\""
par TsnLinearNetwork.visualizer.statisticVisualizer tags "\"\""
par TsnLinearNetwork.visualizer.statisticVisualizer networkNodeVisualizerModule "\"^.networkNodeVisualizer\""
par TsnLinearNetwork.visualizer.statisticVisualizer displayStatistics true
par TsnLinearNetwork.visualizer.statisticVisualizer signalName "\"\""
par TsnLinearNetwork.visualizer.statisticVisualizer statisticName "\"\""
par TsnLinearNetwork.visualizer.statisticVisualizer statisticUnit "\"\""
par TsnLinearNetwork.visualizer.statisticVisualizer statisticExpression "\"\""
par TsnLinearNetwork.visualizer.statisticVisualizer sourceFilter "\"**\""
attr mutable ""
par TsnLinearNetwork.visualizer.statisticVisualizer format "\"%n: %v %u\""
attr mutable ""
par TsnLinearNetwork.visualizer.statisticVisualizer unit "\"\""
par TsnLinearNetwork.visualizer.statisticVisualizer font "\"<default>\""
par TsnLinearNetwork.visualizer.statisticVisualizer textColor "\"black\""
par TsnLinearNetwork.visualizer.statisticVisualizer backgroundColor "\"white\""
par TsnLinearNetwork.visualizer.statisticVisualizer opacity 1
par TsnLinearNetwork.visualizer.statisticVisualizer placementHint "\"top\""
par TsnLinearNetwork.visualizer.statisticVisualizer placementPriority 0
par TsnLinearNetwork.visualizer.statisticVisualizer zIndex 10
par TsnLinearNetwork.visualizer.statisticVisualizer propertyName "\"\""
par TsnLinearNetwork.visualizer.statisticVisualizer propertyIndex "\"\""
par TsnLinearNetwork.visualizer.infoVisualizer typename "\"inet.visualizer.canvas.common.InfoCanvasVisualizer\""
par TsnLinearNetwork.visualizer.infoVisualizer visualizationTargetModule "\"^.^\""
par TsnLinearNetwork.visualizer.infoVisualizer visualizationSubjectModule "\"^.^\""
par TsnLinearNetwork.visualizer.infoVisualizer tags "\"\""
par TsnLinearNetwork.visualizer.infoVisualizer networkNodeVisualizerModule "\"^.networkNodeVisualizer\""
par TsnLinearNetwork.visualizer.infoVisualizer displayInfos true
par TsnLinearNetwork.visualizer.infoVisualizer modules "\"\""
attr mutable ""
par TsnLinearNetwork.visualizer.infoVisualizer format "\"%t\""
attr mutable ""
par TsnLinearNetwork.visualizer.infoVisualizer font "\"<default>\""
par TsnLinearNetwork.visualizer.infoVisualizer textColor "\"black\""
par TsnLinearNetwork.visualizer.infoVisualizer backgroundColor "\"white\""
par TsnLinearNetwork.visualizer.infoVisualizer opacity 1
par TsnLinearNetwork.visualizer.infoVisualizer placementHint "\"top\""
par TsnLinearNetwork.visualizer.infoVisualizer placementPriority 0
par TsnLinearNetwork.visualizer.infoVisualizer zIndex 10
par TsnLinearNetwork.visualizer.energyStorageVisualizer typename "\"inet.visualizer.canvas.power.EnergyStorageCanvasVisualizer\""
par TsnLinearNetwork.visualizer.energyStorageVisualizer visualizationTargetModule "\"^.^\""
par TsnLinearNetwork.visualizer.energyStorageVisualizer visualizationSubjectModule "\"^.^\""
par TsnLinearNetwork.visualizer.energyStorageVisualizer tags "\"\""
par TsnLinearNetwork.visualizer.energyStorageVisualizer networkNodeVisualizerModule "\"^.networkNodeVisualizer\""
par TsnLinearNetwork.visualizer.energyStorageVisualizer displayEnergyStorages false
par TsnLinearNetwork.visualizer.energyStorageVisualizer energyStorageFilter "\"**\""
par TsnLinearNetwork.visualizer.energyStorageVisualizer color "\"green\""
par TsnLinearNetwork.visualizer.energyStorageVisualizer width 8
par TsnLinearNetwork.visualizer.energyStorageVisualizer height 24
par TsnLinearNetwork.visualizer.energyStorageVisualizer spacing 2
par TsnLinearNetwork.visualizer.energyStorageVisualizer placementHint "\"right\""
par TsnLinearNetwork.visualizer.energyStorageVisualizer placementPriority 0
par TsnLinearNetwork.visualizer.energyStorageVisualizer zIndex 10
par TsnLinearNetwork.visualizer.mediumVisualizer typename "\"inet.visualizer.canvas.physicallayer.MediumCanvasVisualizer\""
par TsnLinearNetwork.visualizer.mediumVisualizer visualizationTargetModule "\"^.^\""
par TsnLinearNetwork.visualizer.mediumVisualizer visualizationSubjectModule "\"^.^\""
par TsnLinearNetwork.visualizer.mediumVisualizer tags "\"\""
par TsnLinearNetwork.visualizer.mediumVisualizer mediumModule "\"radioMedium\""
par TsnLinearNetwork.visualizer.mediumVisualizer networkNodeVisualizerModule "\"^.networkNodeVisualizer\""
par TsnLinearNetwork.visualizer.mediumVisualizer nodeFilter "\"*\""
attr mutable ""
par TsnLinearNetwork.visualizer.mediumVisualizer interfaceFilter "\"*\""
attr mutable ""
par TsnLinearNetwork.visualizer.mediumVisualizer packetFilter "(omnetpp::cValueHolder)holder: \"*\""
attr mutable ""
par TsnLinearNetwork.visualizer.mediumVisualizer displaySignals false
par TsnLinearNetwork.visualizer.mediumVisualizer signalColor "\"dark\""
par TsnLinearNetwork.visualizer.mediumVisualizer signalPropagationAnimationSpeed "nan "
attr mutable ""
par TsnLinearNetwork.visualizer.mediumVisualizer signalPropagationAnimationTime 1s
attr unit s
par TsnLinearNetwork.visualizer.mediumVisualizer signalPropagationAdditionalTime 0s
attr unit s
par TsnLinearNetwork.visualizer.mediumVisualizer signalTransmissionAnimationSpeed "nan "
attr mutable ""
par TsnLinearNetwork.visualizer.mediumVisualizer signalTransmissionAnimationTime 1s
attr unit s
par TsnLinearNetwork.visualizer.mediumVisualizer signalAnimationSpeedChangeTimeMode "\"realTime\""
attr enum realTime,animationTime,simulationTime
par TsnLinearNetwork.visualizer.mediumVisualizer signalAnimationSpeedChangeTime 1s
attr unit s
par TsnLinearNetwork.visualizer.mediumVisualizer displaySignalDepartures false
par TsnLinearNetwork.visualizer.mediumVisualizer signalDepartureImage "\"misc/signal_departure.png\""
par TsnLinearNetwork.visualizer.mediumVisualizer signalDeparturePlacementHint "\"topCenter\""
par TsnLinearNetwork.visualizer.mediumVisualizer signalDeparturePlacementPriority 1
par TsnLinearNetwork.visualizer.mediumVisualizer displaySignalArrivals false
par TsnLinearNetwork.visualizer.mediumVisualizer signalArrivalImage "\"misc/signal_arrival.png\""
par TsnLinearNetwork.visualizer.mediumVisualizer signalArrivalPlacementHint "\"topCenter\""
par TsnLinearNetwork.visualizer.mediumVisualizer signalArrivalPlacementPriority -1
par TsnLinearNetwork.visualizer.mediumVisualizer displayCommunicationRanges false
par TsnLinearNetwork.visualizer.mediumVisualizer communicationRangeLineColor "\"blue\""
par TsnLinearNetwork.visualizer.mediumVisualizer communicationRangeLineStyle "\"solid\""
par TsnLinearNetwork.visualizer.mediumVisualizer communicationRangeLineWidth 1
par TsnLinearNetwork.visualizer.mediumVisualizer displayInterferenceRanges false
par TsnLinearNetwork.visualizer.mediumVisualizer interferenceRangeLineColor "\"gray\""
par TsnLinearNetwork.visualizer.mediumVisualizer interferenceRangeLineStyle "\"solid\""
par TsnLinearNetwork.visualizer.mediumVisualizer interferenceRangeLineWidth 1
par TsnLinearNetwork.visualizer.mediumVisualizer autoPowerAxis true
par TsnLinearNetwork.visualizer.mediumVisualizer signalMinPower "inf dBmW"
attr unit dBmW
par TsnLinearNetwork.visualizer.mediumVisualizer signalMaxPower 0dBmW
attr unit dBmW
par TsnLinearNetwork.visualizer.mediumVisualizer signalMinPowerDensity "inf dBmWpMHz"
attr unit dBmWpMHz
par TsnLinearNetwork.visualizer.mediumVisualizer signalMaxPowerDensity "-inf dBmWpMHz"
attr unit dBmWpMHz
par TsnLinearNetwork.visualizer.mediumVisualizer autoTimeAxis true
par TsnLinearNetwork.visualizer.mediumVisualizer signalMinTime 0s
attr unit s
par TsnLinearNetwork.visualizer.mediumVisualizer signalMaxTime 0s
attr unit s
par TsnLinearNetwork.visualizer.mediumVisualizer autoFrequencyAxis true
par TsnLinearNetwork.visualizer.mediumVisualizer signalMinFrequency "inf Hz"
attr unit Hz
par TsnLinearNetwork.visualizer.mediumVisualizer signalMaxFrequency "-inf Hz"
attr unit Hz
par TsnLinearNetwork.visualizer.mediumVisualizer displayMainPowerDensityMap false
par TsnLinearNetwork.visualizer.mediumVisualizer mainPowerDensityMapPixmapDensity 1
par TsnLinearNetwork.visualizer.mediumVisualizer mainPowerDensityMapMinX 0
par TsnLinearNetwork.visualizer.mediumVisualizer mainPowerDensityMapMaxX "nan "
par TsnLinearNetwork.visualizer.mediumVisualizer mainPowerDensityMapMinY 0
par TsnLinearNetwork.visualizer.mediumVisualizer mainPowerDensityMapMaxY "nan "
par TsnLinearNetwork.visualizer.mediumVisualizer mainPowerDensityMapZ 0
par TsnLinearNetwork.visualizer.mediumVisualizer mainPowerDensityMapFigureXTickCount 3
par TsnLinearNetwork.visualizer.mediumVisualizer mainPowerDensityMapFigureYTickCount 3
par TsnLinearNetwork.visualizer.mediumVisualizer displayPowerDensityMaps false
par TsnLinearNetwork.visualizer.mediumVisualizer powerDensityMapMode "\"auto\""
attr enum total,signal,auto
par TsnLinearNetwork.visualizer.mediumVisualizer powerDensityMapPixelMode "\"mean\""
attr enum sample,partition,mean
par TsnLinearNetwork.visualizer.mediumVisualizer powerDensityMapApproximationSize 10
par TsnLinearNetwork.visualizer.mediumVisualizer powerDensityMapCenterFrequency "nan Hz"
attr mutable ""
attr unit Hz
par TsnLinearNetwork.visualizer.mediumVisualizer powerDensityMapBandwidth 0Hz
attr mutable ""
attr unit Hz
par TsnLinearNetwork.visualizer.mediumVisualizer powerDensityMapFigureWidth 200
par TsnLinearNetwork.visualizer.mediumVisualizer powerDensityMapFigureHeight 120
par TsnLinearNetwork.visualizer.mediumVisualizer powerDensityMapPixmapWidth 200
par TsnLinearNetwork.visualizer.mediumVisualizer powerDensityMapPixmapHeight 120
par TsnLinearNetwork.visualizer.mediumVisualizer powerDensityMapZ 0
par TsnLinearNetwork.visualizer.mediumVisualizer powerDensityMapFigureXTickCount 3
par TsnLinearNetwork.visualizer.mediumVisualizer powerDensityMapFigureYTickCount 3
par TsnLinearNetwork.visualizer.mediumVisualizer displaySpectrums false
par TsnLinearNetwork.visualizer.mediumVisualizer spectrumMode "\"auto\""
attr enum total,signal,auto
par TsnLinearNetwork.visualizer.mediumVisualizer spectrumFigureWidth 200
par TsnLinearNetwork.visualizer.mediumVisualizer spectrumFigureHeight 120
par TsnLinearNetwork.visualizer.mediumVisualizer spectrumFigureXTickCount 3
par TsnLinearNetwork.visualizer.mediumVisualizer spectrumFigureYTickCount 5
par TsnLinearNetwork.visualizer.mediumVisualizer spectrumFigureInterpolationSize 5
par TsnLinearNetwork.visualizer.mediumVisualizer spectrumPlacementHint "\"bottomCenter\""
par TsnLinearNetwork.visualizer.mediumVisualizer spectrumPlacementPriority -1
par TsnLinearNetwork.visualizer.mediumVisualizer displaySpectrograms false
par TsnLinearNetwork.visualizer.mediumVisualizer spectrogramMode "\"auto\""
attr enum total,signal,auto
par TsnLinearNetwork.visualizer.mediumVisualizer spectrogramPixelMode "\"mean\""
attr enum sample,partition,mean
par TsnLinearNetwork.visualizer.mediumVisualizer spectrogramFigureWidth 200
par TsnLinearNetwork.visualizer.mediumVisualizer spectrogramFigureHeight 120
par TsnLinearNetwork.visualizer.mediumVisualizer spectrogramPixmapWidth 200
par TsnLinearNetwork.visualizer.mediumVisualizer spectrogramPixmapHeight 120
par TsnLinearNetwork.visualizer.mediumVisualizer spectrogramFigureXTickCount 3
par TsnLinearNetwork.visualizer.mediumVisualizer spectrogramFigureYTickCount 5
par TsnLinearNetwork.visualizer.mediumVisualizer spectrogramPlacementHint "\"bottomCenter\""
par TsnLinearNetwork.visualizer.mediumVisualizer spectrogramPlacementPriority -1
par TsnLinearNetwork.visualizer.mediumVisualizer zIndex 0
par TsnLinearNetwork.visualizer.mediumVisualizer signalShape "\"ring\""
attr enum ring,sphere
par TsnLinearNetwork.visualizer.mediumVisualizer signalOpacity 0.5
par TsnLinearNetwork.visualizer.mediumVisualizer signalRingCount 20
par TsnLinearNetwork.visualizer.mediumVisualizer signalRingSize 50m
attr unit m
par TsnLinearNetwork.visualizer.mediumVisualizer signalFadingDistance 50m
attr unit m
par TsnLinearNetwork.visualizer.mediumVisualizer signalFadingFactor 1.2
par TsnLinearNetwork.visualizer.mediumVisualizer signalWaveCount 20
par TsnLinearNetwork.visualizer.mediumVisualizer signalWaveLength 50m
attr unit m
par TsnLinearNetwork.visualizer.mediumVisualizer signalWaveWidth 10m
attr unit m
par TsnLinearNetwork.visualizer.mediumVisualizer signalWaveFadingAnimationSpeedFactor 1
par TsnLinearNetwork.visualizer.mediumVisualizer displayCommunicationHeat false
par TsnLinearNetwork.visualizer.obstacleLossVisualizer typename "\"inet.visualizer.canvas.physicallayer.TracingObstacleLossCanvasVisualizer\""
par TsnLinearNetwork.visualizer.obstacleLossVisualizer visualizationTargetModule "\"^.^\""
par TsnLinearNetwork.visualizer.obstacleLossVisualizer visualizationSubjectModule "\"^.^\""
par TsnLinearNetwork.visualizer.obstacleLossVisualizer tags "\"\""
par TsnLinearNetwork.visualizer.obstacleLossVisualizer displayIntersections false
par TsnLinearNetwork.visualizer.obstacleLossVisualizer intersectionLineColor "\"red\""
par TsnLinearNetwork.visualizer.obstacleLossVisualizer intersectionLineStyle "\"solid\""
par TsnLinearNetwork.visualizer.obstacleLossVisualizer intersectionLineWidth 1
par TsnLinearNetwork.visualizer.obstacleLossVisualizer displayFaceNormalVectors false
par TsnLinearNetwork.visualizer.obstacleLossVisualizer faceNormalLineColor "\"grey\""
par TsnLinearNetwork.visualizer.obstacleLossVisualizer faceNormalLineStyle "\"solid\""
par TsnLinearNetwork.visualizer.obstacleLossVisualizer faceNormalLineWidth 1
par TsnLinearNetwork.visualizer.obstacleLossVisualizer fadeOutMode "\"realTime\""
attr enum realTime,animationTime,simulationTime
par TsnLinearNetwork.visualizer.obstacleLossVisualizer fadeOutTime 1s
attr unit s
par TsnLinearNetwork.visualizer.obstacleLossVisualizer fadeOutAnimationSpeed 0
par TsnLinearNetwork.visualizer.obstacleLossVisualizer zIndex 0
par TsnLinearNetwork.visualizer.packetDropVisualizer typename "\"inet.visualizer.canvas.common.PacketDropCanvasVisualizer\""
par TsnLinearNetwork.visualizer.packetDropVisualizer visualizationTargetModule "\"^.^\""
par TsnLinearNetwork.visualizer.packetDropVisualizer visualizationSubjectModule "\"^.^\""
par TsnLinearNetwork.visualizer.packetDropVisualizer tags "\"\""
par TsnLinearNetwork.visualizer.packetDropVisualizer displayPacketDrops false
par TsnLinearNetwork.visualizer.packetDropVisualizer nodeFilter "\"*\""
attr mutable ""
par TsnLinearNetwork.visualizer.packetDropVisualizer interfaceFilter "\"*\""
attr mutable ""
par TsnLinearNetwork.visualizer.packetDropVisualizer packetFilter "(omnetpp::cValueHolder)holder: \"*\""
attr mutable ""
par TsnLinearNetwork.visualizer.packetDropVisualizer detailsFilter "\"*\""
attr mutable ""
par TsnLinearNetwork.visualizer.packetDropVisualizer icon "\"msg/packet_s\""
par TsnLinearNetwork.visualizer.packetDropVisualizer iconTintAmount 1
par TsnLinearNetwork.visualizer.packetDropVisualizer iconTintColor "\"dark\""
par TsnLinearNetwork.visualizer.packetDropVisualizer labelFormat "\"%n\""
attr mutable ""
par TsnLinearNetwork.visualizer.packetDropVisualizer labelFont "\"<default>\""
par TsnLinearNetwork.visualizer.packetDropVisualizer labelColor "\"black\""
par TsnLinearNetwork.visualizer.packetDropVisualizer fadeOutMode "\"realTime\""
attr enum realTime,animationTime,simulationTime
par TsnLinearNetwork.visualizer.packetDropVisualizer fadeOutTime 1s
attr unit s
par TsnLinearNetwork.visualizer.packetDropVisualizer fadeOutAnimationSpeed 0
par TsnLinearNetwork.visualizer.packetDropVisualizer zIndex 10
par TsnLinearNetwork.visualizer.packetDropVisualizer dx 32
par TsnLinearNetwork.visualizer.packetDropVisualizer dy 64
par TsnLinearNetwork.visualizer.packetFlowVisualizer typename "\"inet.visualizer.canvas.flow.PacketFlowCanvasVisualizer\""
par TsnLinearNetwork.visualizer.packetFlowVisualizer visualizationTargetModule "\"^.^\""
par TsnLinearNetwork.visualizer.packetFlowVisualizer visualizationSubjectModule "\"^.^\""
par TsnLinearNetwork.visualizer.packetFlowVisualizer tags "\"\""
par TsnLinearNetwork.visualizer.packetFlowVisualizer displayRoutes false
par TsnLinearNetwork.visualizer.packetFlowVisualizer startPathSignal "\"packetFlowStarted\""
par TsnLinearNetwork.visualizer.packetFlowVisualizer extendPathSignal "\"packetReceivedFromLower\""
par TsnLinearNetwork.visualizer.packetFlowVisualizer endPathSignal "\"packetFlowEnded\""
par TsnLinearNetwork.visualizer.packetFlowVisualizer nodeFilter "\"*\""
attr mutable ""
par TsnLinearNetwork.visualizer.packetFlowVisualizer packetFilter "(omnetpp::cValueHolder)holder: \"*\""
attr mutable ""
par TsnLinearNetwork.visualizer.packetFlowVisualizer lineColor "\"dark\""
par TsnLinearNetwork.visualizer.packetFlowVisualizer lineStyle "\"dashed\""
par TsnLinearNetwork.visualizer.packetFlowVisualizer lineWidth 3
par TsnLinearNetwork.visualizer.packetFlowVisualizer lineSmooth false
par TsnLinearNetwork.visualizer.packetFlowVisualizer lineShift 16
par TsnLinearNetwork.visualizer.packetFlowVisualizer lineShiftMode "\"normal\""
par TsnLinearNetwork.visualizer.packetFlowVisualizer lineContactSpacing 3
par TsnLinearNetwork.visualizer.packetFlowVisualizer lineContactMode "\"rectangular\""
attr enum circular,rectangular
par TsnLinearNetwork.visualizer.packetFlowVisualizer labelFormat "\"%L %p pk (%l)\""
par TsnLinearNetwork.visualizer.packetFlowVisualizer labelFont "\"<default>, 8px\""
par TsnLinearNetwork.visualizer.packetFlowVisualizer labelColor "\"\""
par TsnLinearNetwork.visualizer.packetFlowVisualizer fadeOutMode "\"realTime\""
attr enum realTime,animationTime,simulationTime
par TsnLinearNetwork.visualizer.packetFlowVisualizer fadeOutTime 0s
attr unit s
par TsnLinearNetwork.visualizer.packetFlowVisualizer fadeOutAnimationSpeed 0
par TsnLinearNetwork.visualizer.packetFlowVisualizer zIndex 4
par TsnLinearNetwork.visualizer.queueVisualizer typename "\"inet.visualizer.canvas.common.QueueCanvasVisualizer\""
par TsnLinearNetwork.visualizer.queueVisualizer visualizationTargetModule "\"^.^\""
par TsnLinearNetwork.visualizer.queueVisualizer visualizationSubjectModule "\"^.^\""
par TsnLinearNetwork.visualizer.queueVisualizer tags "\"\""
par TsnLinearNetwork.visualizer.queueVisualizer networkNodeVisualizerModule "\"^.networkNodeVisualizer\""
par TsnLinearNetwork.visualizer.queueVisualizer displayQueues false
par TsnLinearNetwork.visualizer.queueVisualizer queueFilter "\"**\""
par TsnLinearNetwork.visualizer.queueVisualizer color "\"blue\""
par TsnLinearNetwork.visualizer.queueVisualizer width 8
par TsnLinearNetwork.visualizer.queueVisualizer height 24
par TsnLinearNetwork.visualizer.queueVisualizer spacing 2
par TsnLinearNetwork.visualizer.queueVisualizer placementHint "\"right\""
par TsnLinearNetwork.visualizer.queueVisualizer placementPriority 0
par TsnLinearNetwork.visualizer.queueVisualizer zIndex 10
par TsnLinearNetwork.visualizer.gateScheduleVisualizer typename "\"inet.visualizer.canvas.common.GateScheduleCanvasVisualizer\""
par TsnLinearNetwork.visualizer.gateScheduleVisualizer visualizationTargetModule "\"^.^\""
par TsnLinearNetwork.visualizer.gateScheduleVisualizer visualizationSubjectModule "\"^.^\""
par TsnLinearNetwork.visualizer.gateScheduleVisualizer tags "\"\""
par TsnLinearNetwork.visualizer.gateScheduleVisualizer networkNodeVisualizerModule "\"^.networkNodeVisualizer\""
par TsnLinearNetwork.visualizer.gateScheduleVisualizer displayGateSchedules true
par TsnLinearNetwork.visualizer.gateScheduleVisualizer labelFormat "\"%i %D\""
par TsnLinearNetwork.visualizer.gateScheduleVisualizer gateFilter "\"**.eth[1].**\""
par TsnLinearNetwork.visualizer.gateScheduleVisualizer width 100
par TsnLinearNetwork.visualizer.gateScheduleVisualizer height 16
par TsnLinearNetwork.visualizer.gateScheduleVisualizer spacing 2
par TsnLinearNetwork.visualizer.gateScheduleVisualizer placementHint "\"top\""
par TsnLinearNetwork.visualizer.gateScheduleVisualizer placementPriority 0
par TsnLinearNetwork.visualizer.gateScheduleVisualizer displayDuration 0s
attr mutable ""
attr unit s
par TsnLinearNetwork.visualizer.gateScheduleVisualizer currentTimePosition 50
par TsnLinearNetwork.visualizer.gateScheduleVisualizer zIndex 10
par TsnLinearNetwork.visualizer.radioVisualizer typename "\"inet.visualizer.canvas.physicallayer.RadioCanvasVisualizer\""
par TsnLinearNetwork.visualizer.radioVisualizer visualizationTargetModule "\"^.^\""
par TsnLinearNetwork.visualizer.radioVisualizer visualizationSubjectModule "\"^.^\""
par TsnLinearNetwork.visualizer.radioVisualizer tags "\"\""
par TsnLinearNetwork.visualizer.radioVisualizer networkNodeVisualizerModule "\"^.networkNodeVisualizer\""
par TsnLinearNetwork.visualizer.radioVisualizer displayRadios false
par TsnLinearNetwork.visualizer.radioVisualizer displayRadioMode true
par TsnLinearNetwork.visualizer.radioVisualizer displayReceptionState true
par TsnLinearNetwork.visualizer.radioVisualizer displayTransmissionState true
par TsnLinearNetwork.visualizer.radioVisualizer displayAntennaLobes false
par TsnLinearNetwork.visualizer.radioVisualizer radioFilter "\"**\""
attr mutable ""
par TsnLinearNetwork.visualizer.radioVisualizer radioModeImages "\"block/process_vs block/timer_vs block/wrx_vs block/wtx_vs block/wrxtx_vs block/cogwheel_vs\""
par TsnLinearNetwork.visualizer.radioVisualizer receptionStateImages "\"- - misc/receiving misc/receiving\""
par TsnLinearNetwork.visualizer.radioVisualizer transmissionStateImages "\"- - misc/transmitting\""
par TsnLinearNetwork.visualizer.radioVisualizer width 16
par TsnLinearNetwork.visualizer.radioVisualizer height 16
par TsnLinearNetwork.visualizer.radioVisualizer placementHint "\"bottomRight\""
par TsnLinearNetwork.visualizer.radioVisualizer placementPriority 0
par TsnLinearNetwork.visualizer.radioVisualizer antennaLobeNormalize false
par TsnLinearNetwork.visualizer.radioVisualizer antennaLobeRelativeLabels false
par TsnLinearNetwork.visualizer.radioVisualizer antennaLobePlaneGlobal true
par TsnLinearNetwork.visualizer.radioVisualizer antennaLobePlane "\"view\""
attr enum view,xy,xz,yz
par TsnLinearNetwork.visualizer.radioVisualizer antennaLobeMode "\"logarithmic\""
attr enum logarithmic,linear
par TsnLinearNetwork.visualizer.radioVisualizer antennaLobeLogarithmicBase 10
par TsnLinearNetwork.visualizer.radioVisualizer antennaLobeLogarithmicScale 100
par TsnLinearNetwork.visualizer.radioVisualizer antennaLobeRadius 100
par TsnLinearNetwork.visualizer.radioVisualizer antennaLobeStep 10deg
attr unit deg
par TsnLinearNetwork.visualizer.radioVisualizer antennaLobeOpacity 0.25
par TsnLinearNetwork.visualizer.radioVisualizer antennaLobeLineSmooth true
par TsnLinearNetwork.visualizer.radioVisualizer antennaLobeLineColor "\"black\""
par TsnLinearNetwork.visualizer.radioVisualizer antennaLobeLineStyle "\"solid\""
par TsnLinearNetwork.visualizer.radioVisualizer antennaLobeLineWidth 1
par TsnLinearNetwork.visualizer.radioVisualizer antennaLobeFillColor "\"white\""
par TsnLinearNetwork.visualizer.radioVisualizer zIndex 10
par TsnLinearNetwork.visualizer.physicalLinkVisualizer typename "\"inet.visualizer.canvas.physicallayer.PhysicalLinkCanvasVisualizer\""
par TsnLinearNetwork.visualizer.physicalLinkVisualizer visualizationTargetModule "\"^.^\""
par TsnLinearNetwork.visualizer.physicalLinkVisualizer visualizationSubjectModule "\"^.^\""
par TsnLinearNetwork.visualizer.physicalLinkVisualizer tags "\"\""
par TsnLinearNetwork.visualizer.physicalLinkVisualizer displayLinks false
par TsnLinearNetwork.visualizer.physicalLinkVisualizer activityLevel "\"service\""
attr enum service,peer,protocol
par TsnLinearNetwork.visualizer.physicalLinkVisualizer nodeFilter "\"*\""
attr mutable ""
par TsnLinearNetwork.visualizer.physicalLinkVisualizer interfaceFilter "\"*\""
attr mutable ""
par TsnLinearNetwork.visualizer.physicalLinkVisualizer packetFilter "(omnetpp::cValueHolder)holder: \"*\""
attr mutable ""
par TsnLinearNetwork.visualizer.physicalLinkVisualizer lineColor "\"olive\""
par TsnLinearNetwork.visualizer.physicalLinkVisualizer lineStyle "\"dotted\""
par TsnLinearNetwork.visualizer.physicalLinkVisualizer lineWidth 3
par TsnLinearNetwork.visualizer.physicalLinkVisualizer lineShift 16
par TsnLinearNetwork.visualizer.physicalLinkVisualizer lineShiftMode "\"normal\""
par TsnLinearNetwork.visualizer.physicalLinkVisualizer lineContactSpacing 3
par TsnLinearNetwork.visualizer.physicalLinkVisualizer lineContactMode "\"rectangular\""
attr enum circular,rectangular
par TsnLinearNetwork.visualizer.physicalLinkVisualizer labelFormat "\"%n\""
par TsnLinearNetwork.visualizer.physicalLinkVisualizer labelFont "\"<default>, 8px\""
par TsnLinearNetwork.visualizer.physicalLinkVisualizer labelColor "\"olive\""
par TsnLinearNetwork.visualizer.physicalLinkVisualizer fadeOutMode "\"realTime\""
attr enum realTime,animationTime,simulationTime
par TsnLinearNetwork.visualizer.physicalLinkVisualizer fadeOutTime 1s
attr unit s
par TsnLinearNetwork.visualizer.physicalLinkVisualizer fadeOutAnimationSpeed 0
par TsnLinearNetwork.visualizer.physicalLinkVisualizer holdAnimationTime 0s
attr unit s
par TsnLinearNetwork.visualizer.physicalLinkVisualizer zIndex 1
par TsnLinearNetwork.visualizer.interfaceTableVisualizer typename "\"inet.visualizer.canvas.linklayer.InterfaceTableCanvasVisualizer\""
par TsnLinearNetwork.visualizer.interfaceTableVisualizer visualizationTargetModule "\"^.^\""
par TsnLinearNetwork.visualizer.interfaceTableVisualizer visualizationSubjectModule "\"^.^\""
par TsnLinearNetwork.visualizer.interfaceTableVisualizer tags "\"\""
par TsnLinearNetwork.visualizer.interfaceTableVisualizer networkNodeVisualizerModule "\"^.networkNodeVisualizer\""
par TsnLinearNetwork.visualizer.interfaceTableVisualizer displayInterfaceTables false
par TsnLinearNetwork.visualizer.interfaceTableVisualizer displayWiredInterfacesAtConnections true
par TsnLinearNetwork.visualizer.interfaceTableVisualizer displayBackground false
par TsnLinearNetwork.visualizer.interfaceTableVisualizer nodeFilter "\"*\""
attr mutable ""
par TsnLinearNetwork.visualizer.interfaceTableVisualizer interfaceFilter "\"not(lo*)\""
attr mutable ""
par TsnLinearNetwork.visualizer.interfaceTableVisualizer format "\"%N %\\\\%a%/%l\""
attr mutable ""
par TsnLinearNetwork.visualizer.interfaceTableVisualizer placementHint "\"top\""
par TsnLinearNetwork.visualizer.interfaceTableVisualizer placementPriority 0
par TsnLinearNetwork.visualizer.interfaceTableVisualizer font "\"<default>\""
par TsnLinearNetwork.visualizer.interfaceTableVisualizer textColor "\"#005030\""
par TsnLinearNetwork.visualizer.interfaceTableVisualizer backgroundColor "\"white\""
par TsnLinearNetwork.visualizer.interfaceTableVisualizer opacity 1
par TsnLinearNetwork.visualizer.interfaceTableVisualizer zIndex 10
par TsnLinearNetwork.visualizer.dataLinkVisualizer typename "\"inet.visualizer.canvas.linklayer.DataLinkCanvasVisualizer\""
par TsnLinearNetwork.visualizer.dataLinkVisualizer visualizationTargetModule "\"^.^\""
par TsnLinearNetwork.visualizer.dataLinkVisualizer visualizationSubjectModule "\"^.^\""
par TsnLinearNetwork.visualizer.dataLinkVisualizer tags "\"\""
par TsnLinearNetwork.visualizer.dataLinkVisualizer displayLinks false
par TsnLinearNetwork.visualizer.dataLinkVisualizer activityLevel "\"service\""
attr enum service,peer,protocol
par TsnLinearNetwork.visualizer.dataLinkVisualizer nodeFilter "\"*\""
attr mutable ""
par TsnLinearNetwork.visualizer.dataLinkVisualizer interfaceFilter "\"*\""
attr mutable ""
par TsnLinearNetwork.visualizer.dataLinkVisualizer packetFilter "(omnetpp::cValueHolder)holder: \"*\""
attr mutable ""
par TsnLinearNetwork.visualizer.dataLinkVisualizer lineColor "\"darkcyan\""
par TsnLinearNetwork.visualizer.dataLinkVisualizer lineStyle "\"solid\""
par TsnLinearNetwork.visualizer.dataLinkVisualizer lineWidth 3
par TsnLinearNetwork.visualizer.dataLinkVisualizer lineShift 16
par TsnLinearNetwork.visualizer.dataLinkVisualizer lineShiftMode "\"normal\""
par TsnLinearNetwork.visualizer.dataLinkVisualizer lineContactSpacing 3
par TsnLinearNetwork.visualizer.dataLinkVisualizer lineContactMode "\"rectangular\""
attr enum circular,rectangular
par TsnLinearNetwork.visualizer.dataLinkVisualizer labelFormat "\"%n\""
par TsnLinearNetwork.visualizer.dataLinkVisualizer labelFont "\"<default>, 8px\""
par TsnLinearNetwork.visualizer.dataLinkVisualizer labelColor "\"darkcyan\""
par TsnLinearNetwork.visualizer.dataLinkVisualizer fadeOutMode "\"realTime\""
attr enum realTime,animationTime,simulationTime
par TsnLinearNetwork.visualizer.dataLinkVisualizer fadeOutTime 1s
attr unit s
par TsnLinearNetwork.visualizer.dataLinkVisualizer fadeOutAnimationSpeed 0
par TsnLinearNetwork.visualizer.dataLinkVisualizer holdAnimationTime 0s
attr unit s
par TsnLinearNetwork.visualizer.dataLinkVisualizer zIndex 2
par TsnLinearNetwork.visualizer.linkBreakVisualizer typename "\"inet.visualizer.canvas.linklayer.LinkBreakCanvasVisualizer\""
par TsnLinearNetwork.visualizer.linkBreakVisualizer visualizationTargetModule "\"^.^\""
par TsnLinearNetwork.visualizer.linkBreakVisualizer visualizationSubjectModule "\"^.^\""
par TsnLinearNetwork.visualizer.linkBreakVisualizer tags "\"\""
par TsnLinearNetwork.visualizer.linkBreakVisualizer displayLinkBreaks false
par TsnLinearNetwork.visualizer.linkBreakVisualizer nodeFilter "\"*\""
attr mutable ""
par TsnLinearNetwork.visualizer.linkBreakVisualizer interfaceFilter "\"*\""
attr mutable ""
par TsnLinearNetwork.visualizer.linkBreakVisualizer packetFilter "(omnetpp::cValueHolder)holder: \"*\""
attr mutable ""
par TsnLinearNetwork.visualizer.linkBreakVisualizer icon "\"status/stop\""
par TsnLinearNetwork.visualizer.linkBreakVisualizer iconTintAmount 0
par TsnLinearNetwork.visualizer.linkBreakVisualizer iconTintColor "\"\""
par TsnLinearNetwork.visualizer.linkBreakVisualizer fadeOutMode "\"realTime\""
attr enum realTime,animationTime,simulationTime
par TsnLinearNetwork.visualizer.linkBreakVisualizer fadeOutTime 1s
attr unit s
par TsnLinearNetwork.visualizer.linkBreakVisualizer fadeOutAnimationSpeed 0
par TsnLinearNetwork.visualizer.linkBreakVisualizer zIndex 2
par TsnLinearNetwork.visualizer.ieee80211Visualizer typename "\"inet.visualizer.canvas.linklayer.Ieee80211CanvasVisualizer\""
par TsnLinearNetwork.visualizer.ieee80211Visualizer visualizationTargetModule "\"^.^\""
par TsnLinearNetwork.visualizer.ieee80211Visualizer visualizationSubjectModule "\"^.^\""
par TsnLinearNetwork.visualizer.ieee80211Visualizer tags "\"\""
par TsnLinearNetwork.visualizer.ieee80211Visualizer networkNodeVisualizerModule "\"^.networkNodeVisualizer\""
par TsnLinearNetwork.visualizer.ieee80211Visualizer displayAssociations false
par TsnLinearNetwork.visualizer.ieee80211Visualizer nodeFilter "\"*\""
attr mutable ""
par TsnLinearNetwork.visualizer.ieee80211Visualizer interfaceFilter "\"*\""
attr mutable ""
par TsnLinearNetwork.visualizer.ieee80211Visualizer minPower -85dBm
attr unit dBm
par TsnLinearNetwork.visualizer.ieee80211Visualizer maxPower -50dBm
attr unit dBm
par TsnLinearNetwork.visualizer.ieee80211Visualizer icons "\"misc/signal_power_0 misc/signal_power_1 misc/signal_power_2 misc/signal_power_3\""
par TsnLinearNetwork.visualizer.ieee80211Visualizer iconColor "\"dark\""
par TsnLinearNetwork.visualizer.ieee80211Visualizer labelFont "\"<default>\""
par TsnLinearNetwork.visualizer.ieee80211Visualizer labelColor "\"black\""
par TsnLinearNetwork.visualizer.ieee80211Visualizer placementHint "\"top\""
par TsnLinearNetwork.visualizer.ieee80211Visualizer placementPriority 0
par TsnLinearNetwork.visualizer.ieee80211Visualizer zIndex 2
par TsnLinearNetwork.visualizer.networkRouteVisualizer typename "\"inet.visualizer.canvas.networklayer.NetworkRouteCanvasVisualizer\""
par TsnLinearNetwork.visualizer.networkRouteVisualizer visualizationTargetModule "\"^.^\""
par TsnLinearNetwork.visualizer.networkRouteVisualizer visualizationSubjectModule "\"^.^\""
par TsnLinearNetwork.visualizer.networkRouteVisualizer tags "\"\""
par TsnLinearNetwork.visualizer.networkRouteVisualizer displayRoutes false
par TsnLinearNetwork.visualizer.networkRouteVisualizer startPathSignal "\"packetReceivedFromUpper\""
par TsnLinearNetwork.visualizer.networkRouteVisualizer extendPathSignal "\"packetReceivedFromLower\""
par TsnLinearNetwork.visualizer.networkRouteVisualizer endPathSignal "\"packetSentToUpper\""
par TsnLinearNetwork.visualizer.networkRouteVisualizer nodeFilter "\"*\""
attr mutable ""
par TsnLinearNetwork.visualizer.networkRouteVisualizer packetFilter "(omnetpp::cValueHolder)holder: \"*\""
attr mutable ""
par TsnLinearNetwork.visualizer.networkRouteVisualizer lineColor "\"dark\""
par TsnLinearNetwork.visualizer.networkRouteVisualizer lineStyle "\"solid\""
par TsnLinearNetwork.visualizer.networkRouteVisualizer lineWidth 3
par TsnLinearNetwork.visualizer.networkRouteVisualizer lineSmooth false
par TsnLinearNetwork.visualizer.networkRouteVisualizer lineShift 16
par TsnLinearNetwork.visualizer.networkRouteVisualizer lineShiftMode "\"normal\""
par TsnLinearNetwork.visualizer.networkRouteVisualizer lineContactSpacing 3
par TsnLinearNetwork.visualizer.networkRouteVisualizer lineContactMode "\"rectangular\""
attr enum circular,rectangular
par TsnLinearNetwork.visualizer.networkRouteVisualizer labelFormat "\"%n\""
par TsnLinearNetwork.visualizer.networkRouteVisualizer labelFont "\"<default>, 8px\""
par TsnLinearNetwork.visualizer.networkRouteVisualizer labelColor "\"\""
par TsnLinearNetwork.visualizer.networkRouteVisualizer fadeOutMode "\"realTime\""
attr enum realTime,animationTime,simulationTime
par TsnLinearNetwork.visualizer.networkRouteVisualizer fadeOutTime 1s
attr unit s
par TsnLinearNetwork.visualizer.networkRouteVisualizer fadeOutAnimationSpeed 0
par TsnLinearNetwork.visualizer.networkRouteVisualizer zIndex 3
par TsnLinearNetwork.visualizer.routingTableVisualizer typename "\"inet.visualizer.canvas.networklayer.RoutingTableCanvasVisualizer\""
par TsnLinearNetwork.visualizer.routingTableVisualizer visualizationTargetModule "\"^.^\""
par TsnLinearNetwork.visualizer.routingTableVisualizer visualizationSubjectModule "\"^.^\""
par TsnLinearNetwork.visualizer.routingTableVisualizer tags "\"\""
par TsnLinearNetwork.visualizer.routingTableVisualizer displayRoutingTables false
par TsnLinearNetwork.visualizer.routingTableVisualizer displayRoutesIndividually true
par TsnLinearNetwork.visualizer.routingTableVisualizer displayLabels true
par TsnLinearNetwork.visualizer.routingTableVisualizer destinationFilter "\"*\""
attr mutable ""
par TsnLinearNetwork.visualizer.routingTableVisualizer nodeFilter "\"*\""
attr mutable ""
par TsnLinearNetwork.visualizer.routingTableVisualizer lineColor "\"black\""
par TsnLinearNetwork.visualizer.routingTableVisualizer lineStyle "\"solid\""
par TsnLinearNetwork.visualizer.routingTableVisualizer lineWidth 2
par TsnLinearNetwork.visualizer.routingTableVisualizer lineShift 16
par TsnLinearNetwork.visualizer.routingTableVisualizer lineShiftMode "\"normal\""
par TsnLinearNetwork.visualizer.routingTableVisualizer lineContactSpacing 3
par TsnLinearNetwork.visualizer.routingTableVisualizer lineContactMode "\"rectangular\""
attr enum circular,rectangular
par TsnLinearNetwork.visualizer.routingTableVisualizer labelFormat "\"%d/%m -> %g (%n)\""
attr mutable ""
par TsnLinearNetwork.visualizer.routingTableVisualizer labelFont "\"<default>, 8px\""
par TsnLinearNetwork.visualizer.routingTableVisualizer labelColor "\"black\""
par TsnLinearNetwork.visualizer.routingTableVisualizer zIndex 0
par TsnLinearNetwork.visualizer.transportRouteVisualizer typename "\"inet.visualizer.canvas.transportlayer.TransportRouteCanvasVisualizer\""
par TsnLinearNetwork.visualizer.transportRouteVisualizer visualizationTargetModule "\"^.^\""
par TsnLinearNetwork.visualizer.transportRouteVisualizer visualizationSubjectModule "\"^.^\""
par TsnLinearNetwork.visualizer.transportRouteVisualizer tags "\"\""
par TsnLinearNetwork.visualizer.transportRouteVisualizer displayRoutes false
par TsnLinearNetwork.visualizer.transportRouteVisualizer startPathSignal "\"packetReceivedFromUpper\""
par TsnLinearNetwork.visualizer.transportRouteVisualizer extendPathSignal "\"packetReceivedFromLower\""
par TsnLinearNetwork.visualizer.transportRouteVisualizer endPathSignal "\"packetSentToUpper\""
par TsnLinearNetwork.visualizer.transportRouteVisualizer nodeFilter "\"*\""
attr mutable ""
par TsnLinearNetwork.visualizer.transportRouteVisualizer packetFilter "(omnetpp::cValueHolder)holder: \"*\""
attr mutable ""
par TsnLinearNetwork.visualizer.transportRouteVisualizer lineColor "\"dark\""
par TsnLinearNetwork.visualizer.transportRouteVisualizer lineStyle "\"solid\""
par TsnLinearNetwork.visualizer.transportRouteVisualizer lineWidth 3
par TsnLinearNetwork.visualizer.transportRouteVisualizer lineSmooth false
par TsnLinearNetwork.visualizer.transportRouteVisualizer lineShift 16
par TsnLinearNetwork.visualizer.transportRouteVisualizer lineShiftMode "\"normal\""
par TsnLinearNetwork.visualizer.transportRouteVisualizer lineContactSpacing 3
par TsnLinearNetwork.visualizer.transportRouteVisualizer lineContactMode "\"rectangular\""
attr enum circular,rectangular
par TsnLinearNetwork.visualizer.transportRouteVisualizer labelFormat "\"%n\""
par TsnLinearNetwork.visualizer.transportRouteVisualizer labelFont "\"<default>, 8px\""
par TsnLinearNetwork.visualizer.transportRouteVisualizer labelColor "\"\""
par TsnLinearNetwork.visualizer.transportRouteVisualizer fadeOutMode "\"realTime\""
attr enum realTime,animationTime,simulationTime
par TsnLinearNetwork.visualizer.transportRouteVisualizer fadeOutTime 1s
attr unit s
par TsnLinearNetwork.visualizer.transportRouteVisualizer fadeOutAnimationSpeed 0
par TsnLinearNetwork.visualizer.transportRouteVisualizer zIndex 4
par TsnLinearNetwork.visualizer.transportConnectionVisualizer typename "\"inet.visualizer.canvas.transportlayer.TransportConnectionCanvasVisualizer\""
par TsnLinearNetwork.visualizer.transportConnectionVisualizer visualizationTargetModule "\"^.^\""
par TsnLinearNetwork.visualizer.transportConnectionVisualizer visualizationSubjectModule "\"^.^\""
par TsnLinearNetwork.visualizer.transportConnectionVisualizer tags "\"\""
par TsnLinearNetwork.visualizer.transportConnectionVisualizer networkNodeVisualizerModule "\"^.networkNodeVisualizer\""
par TsnLinearNetwork.visualizer.transportConnectionVisualizer displayTransportConnections false
par TsnLinearNetwork.visualizer.transportConnectionVisualizer sourceNodeFilter "\"*\""
attr mutable ""
par TsnLinearNetwork.visualizer.transportConnectionVisualizer sourcePortFilter "\"*\""
attr mutable ""
par TsnLinearNetwork.visualizer.transportConnectionVisualizer destinationNodeFilter "\"*\""
attr mutable ""
par TsnLinearNetwork.visualizer.transportConnectionVisualizer destinationPortFilter "\"*\""
attr mutable ""
par TsnLinearNetwork.visualizer.transportConnectionVisualizer icon "\"misc/marker_s\""
par TsnLinearNetwork.visualizer.transportConnectionVisualizer iconColor "\"dark\""
par TsnLinearNetwork.visualizer.transportConnectionVisualizer labelFont "\"<default>\""
par TsnLinearNetwork.visualizer.transportConnectionVisualizer labelColor "\"black\""
par TsnLinearNetwork.visualizer.transportConnectionVisualizer placementHint "\"top\""
par TsnLinearNetwork.visualizer.transportConnectionVisualizer placementPriority 0
par TsnLinearNetwork.visualizer.transportConnectionVisualizer zIndex 4
par TsnLinearNetwork.visualizer.failureProtectionConfigurationVisualizer typename "\"inet.visualizer.canvas.configurator.FailureProtectionConfigurationCanvasVisualizer\""
par TsnLinearNetwork.visualizer.failureProtectionConfigurationVisualizer visualizationTargetModule "\"^.^\""
par TsnLinearNetwork.visualizer.failureProtectionConfigurationVisualizer visualizationSubjectModule "\"^.^\""
par TsnLinearNetwork.visualizer.failureProtectionConfigurationVisualizer tags "\"\""
par TsnLinearNetwork.visualizer.failureProtectionConfigurationVisualizer displayTrees false
par TsnLinearNetwork.visualizer.failureProtectionConfigurationVisualizer lineColor "\"dark\""
par TsnLinearNetwork.visualizer.failureProtectionConfigurationVisualizer lineStyle "\"solid\""
par TsnLinearNetwork.visualizer.failureProtectionConfigurationVisualizer lineWidth 3
par TsnLinearNetwork.visualizer.failureProtectionConfigurationVisualizer lineSmooth false
par TsnLinearNetwork.visualizer.failureProtectionConfigurationVisualizer lineShift 16
par TsnLinearNetwork.visualizer.failureProtectionConfigurationVisualizer lineShiftMode "\"normal\""
par TsnLinearNetwork.visualizer.failureProtectionConfigurationVisualizer lineContactSpacing 3
par TsnLinearNetwork.visualizer.failureProtectionConfigurationVisualizer lineContactMode "\"rectangular\""
attr enum circular,rectangular
par TsnLinearNetwork.visualizer.failureProtectionConfigurationVisualizer failureProtectionConfiguratorModule "\"failureProtectionConfigurator\""
par TsnLinearNetwork.visualizer.failureProtectionConfigurationVisualizer streamFilter "\"*\""
par TsnLinearNetwork.visualizer.failureProtectionConfigurationVisualizer zIndex 3
par TsnLinearNetwork.visualizer.streamRedundancyConfigurationVisualizer typename "\"inet.visualizer.canvas.configurator.StreamRedundancyConfigurationCanvasVisualizer\""
par TsnLinearNetwork.visualizer.streamRedundancyConfigurationVisualizer visualizationTargetModule "\"^.^\""
par TsnLinearNetwork.visualizer.streamRedundancyConfigurationVisualizer visualizationSubjectModule "\"^.^\""
par TsnLinearNetwork.visualizer.streamRedundancyConfigurationVisualizer tags "\"\""
par TsnLinearNetwork.visualizer.streamRedundancyConfigurationVisualizer displayTrees false
par TsnLinearNetwork.visualizer.streamRedundancyConfigurationVisualizer lineColor "\"dark\""
par TsnLinearNetwork.visualizer.streamRedundancyConfigurationVisualizer lineStyle "\"solid\""
par TsnLinearNetwork.visualizer.streamRedundancyConfigurationVisualizer lineWidth 3
par TsnLinearNetwork.visualizer.streamRedundancyConfigurationVisualizer lineSmooth false
par TsnLinearNetwork.visualizer.streamRedundancyConfigurationVisualizer lineShift 16
par TsnLinearNetwork.visualizer.streamRedundancyConfigurationVisualizer lineShiftMode "\"normal\""
par TsnLinearNetwork.visualizer.streamRedundancyConfigurationVisualizer lineContactSpacing 3
par TsnLinearNetwork.visualizer.streamRedundancyConfigurationVisualizer lineContactMode "\"rectangular\""
attr enum circular,rectangular
par TsnLinearNetwork.visualizer.streamRedundancyConfigurationVisualizer streamRedundancyConfiguratorModule "\"streamRedundancyConfigurator\""
par TsnLinearNetwork.visualizer.streamRedundancyConfigurationVisualizer streamFilter "\"*\""
par TsnLinearNetwork.visualizer.streamRedundancyConfigurationVisualizer zIndex 3
par TsnLinearNetwork.visualizer typename "\"inet.visualizer.canvas.integrated.IntegratedCanvasVisualizer\""
par TsnLinearNetwork.configurator typename "\"inet.networklayer.configurator.ipv4.Ipv4NetworkConfigurator\""
par TsnLinearNetwork.configurator minLinkWeight 0.001
par TsnLinearNetwork.configurator configureIsolatedNetworksSeparatly false
par TsnLinearNetwork.configurator config "<config>...</config> at content:1"
par TsnLinearNetwork.configurator assignAddresses true
par TsnLinearNetwork.configurator assignUniqueAddresses true
par TsnLinearNetwork.configurator assignDisjunctSubnetAddresses true
par TsnLinearNetwork.configurator addStaticRoutes true
par TsnLinearNetwork.configurator addDefaultRoutes true
par TsnLinearNetwork.configurator addSubnetRoutes true
par TsnLinearNetwork.configurator addDirectRoutes true
par TsnLinearNetwork.configurator optimizeRoutes true
par TsnLinearNetwork.configurator dumpTopology false
par TsnLinearNetwork.configurator dumpLinks false
par TsnLinearNetwork.configurator dumpAddresses false
par TsnLinearNetwork.configurator dumpRoutes false
par TsnLinearNetwork.configurator dumpConfig "\"\""
par TsnLinearNetwork.macForwardingTableConfigurator typename "\"inet.linklayer.configurator.MacForwardingTableConfigurator\""
par TsnLinearNetwork.client.ethg$i[0].channel typename "\"ned.IdealChannel\""
par TsnLinearNetwork.client.eth[0].phys$o.channel typename "\"ned.IdealChannel\""
par TsnLinearNetwork.client.interfaceTable typename "\"inet.networklayer.common.InterfaceTable\""
par TsnLinearNetwork.client.interfaceTable displayAddresses false
par TsnLinearNetwork.client.cb typename "\"inet.common.MessageDispatcher\""
par TsnLinearNetwork.client.cb displayStringTextFormat "\"processed %p pk (%l)\""
par TsnLinearNetwork.client.cb forwardServiceRegistration true
par TsnLinearNetwork.client.cb forwardProtocolRegistration true
par TsnLinearNetwork.client.bridging.directionReverser.upperLayerIn.channel typename "\"ned.IdealChannel\""
par TsnLinearNetwork.client.bridging.directionReverser.join.out.channel typename "\"ned.IdealChannel\""
par TsnLinearNetwork.client.bridging.directionReverser.lowerLayerIn.channel typename "\"ned.IdealChannel\""
par TsnLinearNetwork.client.bridging.directionReverser.fork.out[0].channel typename "\"ned.IdealChannel\""
par TsnLinearNetwork.client.bridging.directionReverser.fork typename "\"inet.common.MessageDispatcher\""
par TsnLinearNetwork.client.bridging.directionReverser.fork displayStringTextFormat "\"processed %p pk (%l)\""
par TsnLinearNetwork.client.bridging.directionReverser.fork forwardServiceRegistration false
par TsnLinearNetwork.client.bridging.directionReverser.fork forwardProtocolRegistration true
par TsnLinearNetwork.client.bridging.directionReverser.reverser typename "\"inet.linklayer.ethernet.common.PacketDirectionReverser\""
par TsnLinearNetwork.client.bridging.directionReverser.reverser displayStringTextFormat "\"processed %p pk (%l)\""
par TsnLinearNetwork.client.bridging.directionReverser.reverser forwardVlan true
par TsnLinearNetwork.client.bridging.directionReverser.reverser forwardPcp true
par TsnLinearNetwork.client.bridging.directionReverser.reverser excludeEncapsulationProtocols []
scalar TsnLinearNetwork.client.bridging.directionReverser.reverser outgoingPackets:count 0
attr recordingmode count
attr source "merge(packetPushedOut, packetPulledOut)"
attr title "outgoing packets, count"
attr unit pk
scalar TsnLinearNetwork.client.bridging.directionReverser.reverser outgoingPacketLengths:sum 0
attr interpolationmode none
attr recordingmode sum
attr source "packetLength(merge(packetPushedOut, packetPulledOut))"
attr title "outgoing packet lengths, sum"
attr unit b
statistic TsnLinearNetwork.client.bridging.directionReverser.reverser outgoingPacketLengths:histogram
field count 0
field mean -nan
field stddev nan
field min nan
field max nan
field sum 0
field sqrsum 0
attr interpolationmode none
attr recordingmode histogram
attr source "packetLength(merge(packetPushedOut, packetPulledOut))"
attr title "outgoing packet lengths"
attr unit b
bin	-inf	0
bin	0	0
bin	1	0
scalar TsnLinearNetwork.client.bridging.directionReverser.reverser flowOutgoingPacketLengths:sum 0
attr interpolationmode none
attr recordingmode sum
attr source "packetLength(demuxFlow(merge(packetPushedOut, packetPulledOut)))"
attr title "flow specific outgoing packet lengths, sum"
attr unit b
statistic TsnLinearNetwork.client.bridging.directionReverser.reverser flowOutgoingPacketLengths:histogram
field count 0
field mean -nan
field stddev nan
field min nan
field max nan
field sum 0
field sqrsum 0
attr interpolationmode none
attr recordingmode histogram
attr source "packetLength(demuxFlow(merge(packetPushedOut, packetPulledOut)))"
attr title "flow specific outgoing packet lengths"
attr unit b
bin	-inf	0
bin	0	0
bin	1	0
scalar TsnLinearNetwork.client.bridging.directionReverser.reverser incomingPackets:count 0
attr recordingmode count
attr source "merge(packetPushedIn, packetPulledIn)"
attr title "incoming packets, count"
attr unit pk
scalar TsnLinearNetwork.client.bridging.directionReverser.reverser incomingPacketLengths:sum 0
attr interpolationmode none
attr recordingmode sum
attr source "packetLength(merge(packetPushedIn, packetPulledIn))"
attr title "incoming packet lengths, sum"
attr unit b
statistic TsnLinearNetwork.client.bridging.directionReverser.reverser incomingPacketLengths:histogram
field count 0
field mean -nan
field stddev nan
field min nan
field max nan
field sum 0
field sqrsum 0
attr interpolationmode none
attr recordingmode histogram
attr source "packetLength(merge(packetPushedIn, packetPulledIn))"
attr title "incoming packet lengths"
attr unit b
bin	-inf	0
bin	0	0
bin	1	0
scalar TsnLinearNetwork.client.bridging.directionReverser.reverser flowIncomingPacketLengths:sum 0
attr interpolationmode none
attr recordingmode sum
attr source "packetLength(demuxFlow(merge(packetPushedIn, packetPulledIn)))"
attr title "flow specific incoming packet lengths, sum"
attr unit b
statistic TsnLinearNetwork.client.bridging.directionReverser.reverser flowIncomingPacketLengths:histogram
field count 0
field mean -nan
field stddev nan
field min nan
field max nan
field sum 0
field sqrsum 0
attr interpolationmode none
attr recordingmode histogram
attr source "packetLength(demuxFlow(merge(packetPushedIn, packetPulledIn)))"
attr title "flow specific incoming packet lengths"
attr unit b
bin	-inf	0
bin	0	0
bin	1	0
par TsnLinearNetwork.client.bridging.directionReverser.join typename "\"inet.queueing.common.PacketMultiplexer\""
par TsnLinearNetwork.client.bridging.directionReverser.join displayStringTextFormat "\"passed %p pk (%l)\""
par TsnLinearNetwork.client.bridging.directionReverser.join forwardServiceRegistration true
par TsnLinearNetwork.client.bridging.directionReverser.join forwardProtocolRegistration false
scalar TsnLinearNetwork.client.bridging.directionReverser.join packets:count 0
attr recordingmode count
attr source "merge(packetPushed, packetPulled)"
attr title "packets, count"
attr unit pk
scalar TsnLinearNetwork.client.bridging.directionReverser.join packetLengths:sum 0
attr interpolationmode none
attr recordingmode sum
attr source "packetLength(merge(packetPushed, packetPulled))"
attr title "packet lengths, sum"
attr unit b
statistic TsnLinearNetwork.client.bridging.directionReverser.join packetLengths:histogram
field count 0
field mean -nan
field stddev nan
field min nan
field max nan
field sum 0
field sqrsum 0
attr interpolationmode none
attr recordingmode histogram
attr source "packetLength(merge(packetPushed, packetPulled))"
attr title "packet lengths"
attr unit b
bin	-inf	0
bin	0	0
bin	1	0
par TsnLinearNetwork.client.bridging.directionReverser typename "\"inet.linklayer.ethernet.common.DirectionReverserLayer\""
par TsnLinearNetwork.client.bridging.streamIdentifier.upperLayerIn.channel typename "\"ned.IdealChannel\""
par TsnLinearNetwork.client.bridging.streamIdentifier.identifier.out.channel typename "\"ned.IdealChannel\""
par TsnLinearNetwork.client.bridging.streamIdentifier.identifier typename "\"inet.protocolelement.redundancy.StreamIdentifier\""
par TsnLinearNetwork.client.bridging.streamIdentifier.identifier displayStringTextFormat "\"processed %p pk (%l)\""
par TsnLinearNetwork.client.bridging.streamIdentifier.identifier hasSequenceNumbering false
par TsnLinearNetwork.client.bridging.streamIdentifier.identifier mapping "[{packetFilter: (omnetpp::cOwnedDynamicExpression)mapping.array2.map1., stream: \"speed/torque command\"}, {packetFilter: (omnetpp::cOwnedDynamicExpression)mapping.array2.map2., stream: \"brake command\"}]"
attr mutable ""
scalar TsnLinearNetwork.client.bridging.streamIdentifier.identifier outgoingPackets:count 23
attr recordingmode count
attr source "merge(packetPushedOut, packetPulledOut)"
attr title "outgoing packets, count"
attr unit pk
scalar TsnLinearNetwork.client.bridging.streamIdentifier.identifier outgoingPacketLengths:sum 23072
attr interpolationmode none
attr recordingmode sum
attr source "packetLength(merge(packetPushedOut, packetPulledOut))"
attr title "outgoing packet lengths, sum"
attr unit b
statistic TsnLinearNetwork.client.bridging.streamIdentifier.identifier outgoingPacketLengths:histogram
field count 23
field mean 1003.1304347826
field stddev 595.28200378612
field min 736
field max 2272
field sum 23072
field sqrsum 30940160
attr interpolationmode none
attr recordingmode histogram
attr source "packetLength(merge(packetPushedOut, packetPulledOut))"
attr title "outgoing packet lengths"
attr unit b
bin	-inf	0
bin	350	0
bin	400	0
bin	450	0
bin	500	0
bin	550	0
bin	600	0
bin	650	0
bin	700	19
bin	750	0
bin	800	0
bin	850	0
bin	900	0
bin	950	0
bin	1000	0
bin	1050	0
bin	1100	0
bin	1150	0
bin	1200	0
bin	1250	0
bin	1300	0
bin	1350	0
bin	1400	0
bin	1450	0
bin	1500	0
bin	1550	0
bin	1600	0
bin	1650	0
bin	1700	0
bin	1750	0
bin	1800	0
bin	1850	0
bin	1900	0
bin	1950	0
bin	2000	0
bin	2050	0
bin	2100	0
bin	2150	0
bin	2200	0
bin	2250	4
bin	2300	0
bin	2350	0
bin	2400	0
bin	2450	0
bin	2500	0
bin	2550	0
bin	2600	0
bin	2650	0
bin	2700	0
scalar TsnLinearNetwork.client.bridging.streamIdentifier.identifier flowOutgoingPacketLengths:sum 0
attr interpolationmode none
attr recordingmode sum
attr source "packetLength(demuxFlow(merge(packetPushedOut, packetPulledOut)))"
attr title "flow specific outgoing packet lengths, sum"
attr unit b
statistic TsnLinearNetwork.client.bridging.streamIdentifier.identifier flowOutgoingPacketLengths:histogram
field count 0
field mean -nan
field stddev nan
field min nan
field max nan
field sum 0
field sqrsum 0
attr interpolationmode none
attr recordingmode histogram
attr source "packetLength(demuxFlow(merge(packetPushedOut, packetPulledOut)))"
attr title "flow specific outgoing packet lengths"
attr unit b
bin	-inf	0
bin	0	0
bin	1	0
scalar TsnLinearNetwork.client.bridging.streamIdentifier.identifier incomingPackets:count 23
attr recordingmode count
attr source "merge(packetPushedIn, packetPulledIn)"
attr title "incoming packets, count"
attr unit pk
scalar TsnLinearNetwork.client.bridging.streamIdentifier.identifier incomingPacketLengths:sum 23072
attr interpolationmode none
attr recordingmode sum
attr source "packetLength(merge(packetPushedIn, packetPulledIn))"
attr title "incoming packet lengths, sum"
attr unit b
statistic TsnLinearNetwork.client.bridging.streamIdentifier.identifier incomingPacketLengths:histogram
field count 23
field mean 1003.1304347826
field stddev 595.28200378612
field min 736
field max 2272
field sum 23072
field sqrsum 30940160
attr interpolationmode none
attr recordingmode histogram
attr source "packetLength(merge(packetPushedIn, packetPulledIn))"
attr title "incoming packet lengths"
attr unit b
bin	-inf	0
bin	350	0
bin	400	0
bin	450	0
bin	500	0
bin	550	0
bin	600	0
bin	650	0
bin	700	19
bin	750	0
bin	800	0
bin	850	0
bin	900	0
bin	950	0
bin	1000	0
bin	1050	0
bin	1100	0
bin	1150	0
bin	1200	0
bin	1250	0
bin	1300	0
bin	1350	0
bin	1400	0
bin	1450	0
bin	1500	0
bin	1550	0
bin	1600	0
bin	1650	0
bin	1700	0
bin	1750	0
bin	1800	0
bin	1850	0
bin	1900	0
bin	1950	0
bin	2000	0
bin	2050	0
bin	2100	0
bin	2150	0
bin	2200	0
bin	2250	4
bin	2300	0
bin	2350	0
bin	2400	0
bin	2450	0
bin	2500	0
bin	2550	0
bin	2600	0
bin	2650	0
bin	2700	0
scalar TsnLinearNetwork.client.bridging.streamIdentifier.identifier flowIncomingPacketLengths:sum 0
attr interpolationmode none
attr recordingmode sum
attr source "packetLength(demuxFlow(merge(packetPushedIn, packetPulledIn)))"
attr title "flow specific incoming packet lengths, sum"
attr unit b
statistic TsnLinearNetwork.client.bridging.streamIdentifier.identifier flowIncomingPacketLengths:histogram
field count 0
field mean -nan
field stddev nan
field min nan
field max nan
field sum 0
field sqrsum 0
attr interpolationmode none
attr recordingmode histogram
attr source "packetLength(demuxFlow(merge(packetPushedIn, packetPulledIn)))"
attr title "flow specific incoming packet lengths"
attr unit b
bin	-inf	0
bin	0	0
bin	1	0
par TsnLinearNetwork.client.bridging.streamIdentifier typename "\"inet.protocolelement.redundancy.StreamIdentifierLayer\""
par TsnLinearNetwork.client.bridging.streamCoder.upperLayerIn.channel typename "\"ned.IdealChannel\""
par TsnLinearNetwork.client.bridging.streamCoder.encoder.out.channel typename "\"ned.IdealChannel\""
par TsnLinearNetwork.client.bridging.streamCoder.lowerLayerIn.channel typename "\"ned.IdealChannel\""
par TsnLinearNetwork.client.bridging.streamCoder.decoder.out.channel typename "\"ned.IdealChannel\""
par TsnLinearNetwork.client.bridging.streamCoder.decoder typename "\"inet.protocolelement.redundancy.StreamDecoder\""
par TsnLinearNetwork.client.bridging.streamCoder.decoder displayStringTextFormat "\"processed %p pk (%l)\""
par TsnLinearNetwork.client.bridging.streamCoder.decoder interfaceTableModule "\"TsnLinearNetwork.client.interfaceTable\""
par TsnLinearNetwork.client.bridging.streamCoder.decoder mapping []
attr mutable ""
scalar TsnLinearNetwork.client.bridging.streamCoder.decoder outgoingPackets:count 0
attr recordingmode count
attr source "merge(packetPushedOut, packetPulledOut)"
attr title "outgoing packets, count"
attr unit pk
scalar TsnLinearNetwork.client.bridging.streamCoder.decoder outgoingPacketLengths:sum 0
attr interpolationmode none
attr recordingmode sum
attr source "packetLength(merge(packetPushedOut, packetPulledOut))"
attr title "outgoing packet lengths, sum"
attr unit b
statistic TsnLinearNetwork.client.bridging.streamCoder.decoder outgoingPacketLengths:histogram
field count 0
field mean -nan
field stddev nan
field min nan
field max nan
field sum 0
field sqrsum 0
attr interpolationmode none
attr recordingmode histogram
attr source "packetLength(merge(packetPushedOut, packetPulledOut))"
attr title "outgoing packet lengths"
attr unit b
bin	-inf	0
bin	0	0
bin	1	0
scalar TsnLinearNetwork.client.bridging.streamCoder.decoder flowOutgoingPacketLengths:sum 0
attr interpolationmode none
attr recordingmode sum
attr source "packetLength(demuxFlow(merge(packetPushedOut, packetPulledOut)))"
attr title "flow specific outgoing packet lengths, sum"
attr unit b
statistic TsnLinearNetwork.client.bridging.streamCoder.decoder flowOutgoingPacketLengths:histogram
field count 0
field mean -nan
field stddev nan
field min nan
field max nan
field sum 0
field sqrsum 0
attr interpolationmode none
attr recordingmode histogram
attr source "packetLength(demuxFlow(merge(packetPushedOut, packetPulledOut)))"
attr title "flow specific outgoing packet lengths"
attr unit b
bin	-inf	0
bin	0	0
bin	1	0
scalar TsnLinearNetwork.client.bridging.streamCoder.decoder incomingPackets:count 0
attr recordingmode count
attr source "merge(packetPushedIn, packetPulledIn)"
attr title "incoming packets, count"
attr unit pk
scalar TsnLinearNetwork.client.bridging.streamCoder.decoder incomingPacketLengths:sum 0
attr interpolationmode none
attr recordingmode sum
attr source "packetLength(merge(packetPushedIn, packetPulledIn))"
attr title "incoming packet lengths, sum"
attr unit b
statistic TsnLinearNetwork.client.bridging.streamCoder.decoder incomingPacketLengths:histogram
field count 0
field mean -nan
field stddev nan
field min nan
field max nan
field sum 0
field sqrsum 0
attr interpolationmode none
attr recordingmode histogram
attr source "packetLength(merge(packetPushedIn, packetPulledIn))"
attr title "incoming packet lengths"
attr unit b
bin	-inf	0
bin	0	0
bin	1	0
scalar TsnLinearNetwork.client.bridging.streamCoder.decoder flowIncomingPacketLengths:sum 0
attr interpolationmode none
attr recordingmode sum
attr source "packetLength(demuxFlow(merge(packetPushedIn, packetPulledIn)))"
attr title "flow specific incoming packet lengths, sum"
attr unit b
statistic TsnLinearNetwork.client.bridging.streamCoder.decoder flowIncomingPacketLengths:histogram
field count 0
field mean -nan
field stddev nan
field min nan
field max nan
field sum 0
field sqrsum 0
attr interpolationmode none
attr recordingmode histogram
attr source "packetLength(demuxFlow(merge(packetPushedIn, packetPulledIn)))"
attr title "flow specific incoming packet lengths"
attr unit b
bin	-inf	0
bin	0	0
bin	1	0
par TsnLinearNetwork.client.bridging.streamCoder.encoder typename "\"inet.protocolelement.redundancy.StreamEncoder\""
par TsnLinearNetwork.client.bridging.streamCoder.encoder displayStringTextFormat "\"processed %p pk (%l)\""
par TsnLinearNetwork.client.bridging.streamCoder.encoder mapping "[{pcp: 1, stream: \"speed/torque command\"}, {pcp: 7, stream: \"brake command\"}]"
attr mutable ""
scalar TsnLinearNetwork.client.bridging.streamCoder.encoder outgoingPackets:count 23
attr recordingmode count
attr source "merge(packetPushedOut, packetPulledOut)"
attr title "outgoing packets, count"
attr unit pk
scalar TsnLinearNetwork.client.bridging.streamCoder.encoder outgoingPacketLengths:sum 23072
attr interpolationmode none
attr recordingmode sum
attr source "packetLength(merge(packetPushedOut, packetPulledOut))"
attr title "outgoing packet lengths, sum"
attr unit b
statistic TsnLinearNetwork.client.bridging.streamCoder.encoder outgoingPacketLengths:histogram
field count 23
field mean 1003.1304347826
field stddev 595.28200378612
field min 736
field max 2272
field sum 23072
field sqrsum 30940160
attr interpolationmode none
attr recordingmode histogram
attr source "packetLength(merge(packetPushedOut, packetPulledOut))"
attr title "outgoing packet lengths"
attr unit b
bin	-inf	0
bin	350	0
bin	400	0
bin	450	0
bin	500	0
bin	550	0
bin	600	0
bin	650	0
bin	700	19
bin	750	0
bin	800	0
bin	850	0
bin	900	0
bin	950	0
bin	1000	0
bin	1050	0
bin	1100	0
bin	1150	0
bin	1200	0
bin	1250	0
bin	1300	0
bin	1350	0
bin	1400	0
bin	1450	0
bin	1500	0
bin	1550	0
bin	1600	0
bin	1650	0
bin	1700	0
bin	1750	0
bin	1800	0
bin	1850	0
bin	1900	0
bin	1950	0
bin	2000	0
bin	2050	0
bin	2100	0
bin	2150	0
bin	2200	0
bin	2250	4
bin	2300	0
bin	2350	0
bin	2400	0
bin	2450	0
bin	2500	0
bin	2550	0
bin	2600	0
bin	2650	0
bin	2700	0
scalar TsnLinearNetwork.client.bridging.streamCoder.encoder flowOutgoingPacketLengths:sum 0
attr interpolationmode none
attr recordingmode sum
attr source "packetLength(demuxFlow(merge(packetPushedOut, packetPulledOut)))"
attr title "flow specific outgoing packet lengths, sum"
attr unit b
statistic TsnLinearNetwork.client.bridging.streamCoder.encoder flowOutgoingPacketLengths:histogram
field count 0
field mean -nan
field stddev nan
field min nan
field max nan
field sum 0
field sqrsum 0
attr interpolationmode none
attr recordingmode histogram
attr source "packetLength(demuxFlow(merge(packetPushedOut, packetPulledOut)))"
attr title "flow specific outgoing packet lengths"
attr unit b
bin	-inf	0
bin	0	0
bin	1	0
scalar TsnLinearNetwork.client.bridging.streamCoder.encoder incomingPackets:count 23
attr recordingmode count
attr source "merge(packetPushedIn, packetPulledIn)"
attr title "incoming packets, count"
attr unit pk
scalar TsnLinearNetwork.client.bridging.streamCoder.encoder incomingPacketLengths:sum 23072
attr interpolationmode none
attr recordingmode sum
attr source "packetLength(merge(packetPushedIn, packetPulledIn))"
attr title "incoming packet lengths, sum"
attr unit b
statistic TsnLinearNetwork.client.bridging.streamCoder.encoder incomingPacketLengths:histogram
field count 23
field mean 1003.1304347826
field stddev 595.28200378612
field min 736
field max 2272
field sum 23072
field sqrsum 30940160
attr interpolationmode none
attr recordingmode histogram
attr source "packetLength(merge(packetPushedIn, packetPulledIn))"
attr title "incoming packet lengths"
attr unit b
bin	-inf	0
bin	350	0
bin	400	0
bin	450	0
bin	500	0
bin	550	0
bin	600	0
bin	650	0
bin	700	19
bin	750	0
bin	800	0
bin	850	0
bin	900	0
bin	950	0
bin	1000	0
bin	1050	0
bin	1100	0
bin	1150	0
bin	1200	0
bin	1250	0
bin	1300	0
bin	1350	0
bin	1400	0
bin	1450	0
bin	1500	0
bin	1550	0
bin	1600	0
bin	1650	0
bin	1700	0
bin	1750	0
bin	1800	0
bin	1850	0
bin	1900	0
bin	1950	0
bin	2000	0
bin	2050	0
bin	2100	0
bin	2150	0
bin	2200	0
bin	2250	4
bin	2300	0
bin	2350	0
bin	2400	0
bin	2450	0
bin	2500	0
bin	2550	0
bin	2600	0
bin	2650	0
bin	2700	0
scalar TsnLinearNetwork.client.bridging.streamCoder.encoder flowIncomingPacketLengths:sum 0
attr interpolationmode none
attr recordingmode sum
attr source "packetLength(demuxFlow(merge(packetPushedIn, packetPulledIn)))"
attr title "flow specific incoming packet lengths, sum"
attr unit b
statistic TsnLinearNetwork.client.bridging.streamCoder.encoder flowIncomingPacketLengths:histogram
field count 0
field mean -nan
field stddev nan
field min nan
field max nan
field sum 0
field sqrsum 0
attr interpolationmode none
attr recordingmode histogram
attr source "packetLength(demuxFlow(merge(packetPushedIn, packetPulledIn)))"
attr title "flow specific incoming packet lengths"
attr unit b
bin	-inf	0
bin	0	0
bin	1	0
par TsnLinearNetwork.client.bridging.streamCoder typename "\"inet.protocolelement.redundancy.StreamCoderLayer\""
par TsnLinearNetwork.client.bridging.streamCoder interfaceTableModule "\"TsnLinearNetwork.client.interfaceTable\""
par TsnLinearNetwork.client.bridging typename "\"inet.linklayer.ethernet.common.BridgingLayer\""
par TsnLinearNetwork.client.bridging macTableModule "\"\""
par TsnLinearNetwork.client.bridging interfaceTableModule "\"TsnLinearNetwork.client.interfaceTable\""
par TsnLinearNetwork.client.bl typename "\"inet.common.MessageDispatcher\""
par TsnLinearNetwork.client.bl displayStringTextFormat "\"processed %p pk (%l)\""
par TsnLinearNetwork.client.bl forwardServiceRegistration true
par TsnLinearNetwork.client.bl forwardProtocolRegistration true
par TsnLinearNetwork.client.ethernet.fcsInserter.out.channel typename "\"ned.IdealChannel\""
par TsnLinearNetwork.client.ethernet.lowerLayerIn.channel typename "\"ned.IdealChannel\""
par TsnLinearNetwork.client.ethernet.upperLayerIn.channel typename "\"ned.IdealChannel\""
par TsnLinearNetwork.client.ethernet.macHeaderChecker.out.channel typename "\"ned.IdealChannel\""
par TsnLinearNetwork.client.ethernet.macHeaderInserter typename "\"inet.linklayer.ethernet.modular.EthernetMacHeaderInserter\""
par TsnLinearNetwork.client.ethernet.macHeaderInserter displayStringTextFormat "\"processed %p pk (%l)\""
par TsnLinearNetwork.client.ethernet.macHeaderInserter interfaceTableModule "\"TsnLinearNetwork.client.interfaceTable\""
scalar TsnLinearNetwork.client.ethernet.macHeaderInserter outgoingPackets:count 23
attr recordingmode count
attr source "merge(packetPushedOut, packetPulledOut)"
attr title "outgoing packets, count"
attr unit pk
scalar TsnLinearNetwork.client.ethernet.macHeaderInserter outgoingPacketLengths:sum 26384
attr interpolationmode none
attr recordingmode sum
attr source "packetLength(merge(packetPushedOut, packetPulledOut))"
attr title "outgoing packet lengths, sum"
attr unit b
statistic TsnLinearNetwork.client.ethernet.macHeaderInserter outgoingPacketLengths:histogram
field count 23
field mean 1147.1304347826
field stddev 595.28200378612
field min 880
field max 2416
field sum 26384
field sqrsum 38061824
attr interpolationmode none
attr recordingmode histogram
attr source "packetLength(merge(packetPushedOut, packetPulledOut))"
attr title "outgoing packet lengths"
attr unit b
bin	-inf	0
bin	450	0
bin	500	0
bin	550	0
bin	600	0
bin	650	0
bin	700	0
bin	750	0
bin	800	0
bin	850	19
bin	900	0
bin	950	0
bin	1000	0
bin	1050	0
bin	1100	0
bin	1150	0
bin	1200	0
bin	1250	0
bin	1300	0
bin	1350	0
bin	1400	0
bin	1450	0
bin	1500	0
bin	1550	0
bin	1600	0
bin	1650	0
bin	1700	0
bin	1750	0
bin	1800	0
bin	1850	0
bin	1900	0
bin	1950	0
bin	2000	0
bin	2050	0
bin	2100	0
bin	2150	0
bin	2200	0
bin	2250	0
bin	2300	0
bin	2350	0
bin	2400	4
bin	2450	0
bin	2500	0
bin	2550	0
bin	2600	0
bin	2650	0
bin	2700	0
bin	2750	0
bin	2800	0
scalar TsnLinearNetwork.client.ethernet.macHeaderInserter flowOutgoingPacketLengths:sum 0
attr interpolationmode none
attr recordingmode sum
attr source "packetLength(demuxFlow(merge(packetPushedOut, packetPulledOut)))"
attr title "flow specific outgoing packet lengths, sum"
attr unit b
statistic TsnLinearNetwork.client.ethernet.macHeaderInserter flowOutgoingPacketLengths:histogram
field count 0
field mean -nan
field stddev nan
field min nan
field max nan
field sum 0
field sqrsum 0
attr interpolationmode none
attr recordingmode histogram
attr source "packetLength(demuxFlow(merge(packetPushedOut, packetPulledOut)))"
attr title "flow specific outgoing packet lengths"
attr unit b
bin	-inf	0
bin	0	0
bin	1	0
scalar TsnLinearNetwork.client.ethernet.macHeaderInserter incomingPackets:count 23
attr recordingmode count
attr source "merge(packetPushedIn, packetPulledIn)"
attr title "incoming packets, count"
attr unit pk
scalar TsnLinearNetwork.client.ethernet.macHeaderInserter incomingPacketLengths:sum 23808
attr interpolationmode none
attr recordingmode sum
attr source "packetLength(merge(packetPushedIn, packetPulledIn))"
attr title "incoming packet lengths, sum"
attr unit b
statistic TsnLinearNetwork.client.ethernet.macHeaderInserter incomingPacketLengths:histogram
field count 23
field mean 1035.1304347826
field stddev 595.28200378612
field min 768
field max 2304
[...]
par TsnLinearNetwork.server.app[0].sink displayStringTextFormat "\"received %p pk (%l)\""
par TsnLinearNetwork.server.app[0].sink clockModule "\"\""
par TsnLinearNetwork.server.app[0].sink initialConsumptionOffset 0s
attr unit s
par TsnLinearNetwork.server.app[0].sink consumptionInterval 0s
attr unit s
par TsnLinearNetwork.server.app[0].sink scheduleForAbsoluteTime true
scalar TsnLinearNetwork.server.app[0].sink packets:count 18
attr recordingmode count
attr source packetPushed
attr title "packets, count"
attr unit pk
scalar TsnLinearNetwork.server.app[0].sink packetLengths:sum 9216
attr interpolationmode none
attr recordingmode sum
attr source packetLength(packetPushed)
attr title "packet lengths, sum"
attr unit b
statistic TsnLinearNetwork.server.app[0].sink packetLengths:histogram
field count 18
field mean 512
field stddev 0
field min 512
field max 512
field sum 9216
field sqrsum 4718592
attr interpolationmode none
attr recordingmode histogram
attr source packetLength(packetPushed)
attr title "packet lengths"
attr unit b
bin	-inf	0
bin	511	0
bin	512	18
bin	513	0
statistic TsnLinearNetwork.server.app[0].sink meanBitLifeTimePerPacket:histogram
field count 17
field mean 2.0253862235294e-05
field stddev 3.9328747484054e-06
field min 1.93e-05
field max 3.5515658e-05
field sum 0.000344315658
field sqrsum 7.221201963173e-09
attr interpolationmode none
attr recordingmode histogram
attr source weightedMeanPerGroup(groupRegionsPerPacket(lifeTimePerRegion(packetPushed)))
attr title "mean bit life time per packet"
attr unit s
bin	-inf	0
bin	1.5e-05	0
bin	1.55e-05	0
bin	1.6e-05	0
bin	1.65e-05	0
bin	1.7e-05	0
bin	1.75e-05	0
bin	1.8e-05	0
bin	1.85e-05	0
bin	1.9e-05	16
bin	1.95e-05	0
bin	2e-05	0
bin	2.05e-05	0
bin	2.1e-05	0
bin	2.15e-05	0
bin	2.2e-05	0
bin	2.25e-05	0
bin	2.3e-05	0
bin	2.35e-05	0
bin	2.4e-05	0
bin	2.45e-05	0
bin	2.5e-05	0
bin	2.55e-05	0
bin	2.6e-05	0
bin	2.65e-05	0
bin	2.7e-05	0
bin	2.75e-05	0
bin	2.8e-05	0
bin	2.85e-05	0
bin	2.9e-05	0
bin	2.95e-05	0
bin	3e-05	0
bin	3.05e-05	0
bin	3.1e-05	0
bin	3.15e-05	0
bin	3.2e-05	0
bin	3.25e-05	0
bin	3.3e-05	0
bin	3.35e-05	0
bin	3.4e-05	0
bin	3.45e-05	0
bin	3.5e-05	0
bin	3.55e-05	1
bin	3.6e-05	0
bin	3.65e-05	0
bin	3.7e-05	0
bin	3.75e-05	0
bin	3.8e-05	0
bin	3.85e-05	0
bin	3.9e-05	0
bin	3.95e-05	0
bin	4e-05	0
statistic TsnLinearNetwork.server.app[0].sink packetJitter:histogram
field count 17
field mean 1.1352941176471e-06
field stddev 7.4013256932261e-06
field min -1.6215658e-05
field max 1.93e-05
field sum 1.93e-05
field sqrsum 8.9838512874593e-10
attr interpolationmode none
attr recordingmode histogram
attr source jitter(weightedMeanPerGroup(groupRegionsPerPacket(lifeTimePerRegion(packetPushed))))
attr title "packet jitter"
attr unit s
bin	-inf	0
bin	-2.6e-05	0
bin	-2.5e-05	0
bin	-2.4e-05	0
bin	-2.3e-05	0
bin	-2.2e-05	0
bin	-2.1e-05	0
bin	-2e-05	0
bin	-1.9e-05	0
bin	-1.8e-05	0
bin	-1.7e-05	1
bin	-1.6e-05	0
bin	-1.5e-05	0
bin	-1.4e-05	0
bin	-1.3e-05	0
bin	-1.2e-05	0
bin	-1.1e-05	0
bin	-1e-05	0
bin	-9e-06	0
bin	-8e-06	0
bin	-7e-06	0
bin	-6e-06	0
bin	-5e-06	0
bin	-4e-06	0
bin	-3e-06	0
bin	-2e-06	0
bin	-1e-06	0
bin	0	14
bin	1e-06	0
bin	2e-06	0
bin	3e-06	0
bin	4e-06	0
bin	5e-06	0
bin	6e-06	0
bin	7e-06	0
bin	8e-06	0
bin	9e-06	0
bin	1e-05	0
bin	1.1e-05	0
bin	1.2e-05	0
bin	1.3e-05	0
bin	1.4e-05	0
bin	1.5e-05	0
bin	1.6e-05	1
bin	1.7e-05	0
bin	1.8e-05	0
bin	1.9e-05	1
bin	2e-05	0
bin	2.1e-05	0
bin	2.2e-05	0
bin	2.3e-05	0
bin	2.4e-05	0
bin	2.5e-05	0
bin	2.6e-05	0
bin	2.7e-05	0
bin	2.8e-05	0
bin	2.9e-05	0
statistic TsnLinearNetwork.server.app[0].sink packetDelayDifferenceToMean:histogram
field count 17
field mean -7.0641246984264e-07
field stddev 3.7194381961692e-06
field min -1.5057396714286e-05
field max 1.0810438666667e-06
field sum -1.2009011987325e-05
field sqrsum 2.2983084374029e-10
attr interpolationmode none
attr recordingmode histogram
attr source differenceToMean(weightedMeanPerGroup(groupRegionsPerPacket(lifeTimePerRegion(packetPushed))))
attr title "packet delay difference to mean"
attr unit s
bin	-inf	0
bin	-1.95e-05	0
bin	-1.9e-05	0
bin	-1.85e-05	0
bin	-1.8e-05	0
bin	-1.75e-05	0
bin	-1.7e-05	0
bin	-1.65e-05	0
bin	-1.6e-05	0
bin	-1.55e-05	1
bin	-1.5e-05	0
bin	-1.45e-05	0
bin	-1.4e-05	0
bin	-1.35e-05	0
bin	-1.3e-05	0
bin	-1.25e-05	0
bin	-1.2e-05	0
bin	-1.15e-05	0
bin	-1.1e-05	0
bin	-1.05e-05	0
bin	-1e-05	0
bin	-9.5e-06	0
bin	-9e-06	0
bin	-8.5e-06	0
bin	-8e-06	0
bin	-7.5e-06	0
bin	-7e-06	0
bin	-6.5e-06	0
bin	-6e-06	0
bin	-5.5e-06	0
bin	-5e-06	0
bin	-4.5e-06	0
bin	-4e-06	0
bin	-3.5e-06	0
bin	-3e-06	0
bin	-2.5e-06	0
bin	-2e-06	0
bin	-1.5e-06	0
bin	-1e-06	0
bin	-5e-07	0
bin	0	13
bin	5e-07	1
bin	1e-06	2
bin	1.5e-06	0
bin	2e-06	0
bin	2.5e-06	0
bin	3e-06	0
bin	3.5e-06	0
bin	4e-06	0
bin	4.5e-06	0
bin	5e-06	0
bin	5.5e-06	0
statistic TsnLinearNetwork.server.app[0].sink packetDelayVariation:histogram
field count 17
field mean 9.3892358840763e-07
field stddev 1.7460580308358e-06
field min 0
field max 4.1761704560927e-06
field sum 1.596170100293e-05
field sqrsum 6.3766315935498e-11
attr recordingmode histogram
attr source stddev(weightedMeanPerGroup(groupRegionsPerPacket(lifeTimePerRegion(packetPushed))))
attr title "packet delay variation"
attr unit s
bin	-inf	0
bin	0	13
bin	1e-07	0
bin	2e-07	0
bin	3e-07	0
bin	4e-07	0
bin	5e-07	0
bin	6e-07	0
bin	7e-07	0
bin	8e-07	0
bin	9e-07	0
bin	1e-06	0
bin	1.1e-06	0
bin	1.2e-06	0
bin	1.3e-06	0
bin	1.4e-06	0
bin	1.5e-06	0
bin	1.6e-06	0
bin	1.7e-06	0
bin	1.8e-06	0
bin	1.9e-06	0
bin	2e-06	0
bin	2.1e-06	0
bin	2.2e-06	0
bin	2.3e-06	0
bin	2.4e-06	0
bin	2.5e-06	0
bin	2.6e-06	0
bin	2.7e-06	0
bin	2.8e-06	0
bin	2.9e-06	0
bin	3e-06	0
bin	3.1e-06	0
bin	3.2e-06	0
bin	3.3e-06	0
bin	3.4e-06	0
bin	3.5e-06	0
bin	3.6e-06	0
bin	3.7e-06	0
bin	3.8e-06	1
bin	3.9e-06	1
bin	4e-06	1
bin	4.1e-06	1
bin	4.2e-06	0
bin	4.3e-06	0
bin	4.4e-06	0
bin	4.5e-06	0
bin	4.6e-06	0
bin	4.7e-06	0
bin	4.8e-06	0
bin	4.9e-06	0
bin	5e-06	0
bin	5.1e-06	0
bin	5.2e-06	0
bin	5.3e-06	0
scalar TsnLinearNetwork.server.app[0].sink droppedPackets:count 18
attr recordingmode count
attr source packetDropped
attr title "dropped packets, count"
attr unit pk
scalar TsnLinearNetwork.server.app[0].sink droppedPacketLengths:sum 9216
attr interpolationmode none
attr recordingmode sum
attr source packetLength(packetDropped)
attr title "dropped packet lengths, sum"
attr unit b
statistic TsnLinearNetwork.server.app[0].sink droppedPacketLengths:histogram
field count 18
field mean 512
field stddev 0
field min 512
field max 512
field sum 9216
field sqrsum 4718592
attr interpolationmode none
attr recordingmode histogram
attr source packetLength(packetDropped)
attr title "dropped packet lengths"
attr unit b
bin	-inf	0
bin	511	0
bin	512	18
bin	513	0
par TsnLinearNetwork.server.app[0].io typename "\"inet.applications.udpapp.UdpSocketIo\""
par TsnLinearNetwork.server.app[0].io interfaceTableModule "\"TsnLinearNetwork.server.app[0].interfaceTable\""
par TsnLinearNetwork.server.app[0].io localAddress "\"\""
par TsnLinearNetwork.server.app[0].io localPort 1000
par TsnLinearNetwork.server.app[0].io destAddress "\"\""
par TsnLinearNetwork.server.app[0].io destPort -1
par TsnLinearNetwork.server.app[0].io timeToLive -1
par TsnLinearNetwork.server.app[0].io dontFragment false
par TsnLinearNetwork.server.app[0].io dscp -1
par TsnLinearNetwork.server.app[0].io tos -1
par TsnLinearNetwork.server.app[0].io multicastInterface "\"\""
par TsnLinearNetwork.server.app[0].io multicastAddresses []
par TsnLinearNetwork.server.app[0].io receiveBroadcast false
par TsnLinearNetwork.server.app[0].io joinLocalMulticastGroups false
par TsnLinearNetwork.server.app[0].io stopOperationExtraTime -1s
attr unit s
par TsnLinearNetwork.server.app[0].io stopOperationTimeout 2s
attr unit s
scalar TsnLinearNetwork.server.app[0].io "packets sent" 0
scalar TsnLinearNetwork.server.app[0].io "packets received" 18
scalar TsnLinearNetwork.server.app[0].io packetReceived:count 18
attr interpolationmode none
attr recordingmode count
attr source packetReceived
attr title "packets received, count"
scalar TsnLinearNetwork.server.app[0].io packetReceived:sum(packetBytes) 1152
attr interpolationmode none
attr recordingmode sum(packetBytes)
attr source packetReceived
attr title "packets received, sum(packetBytes)"
scalar TsnLinearNetwork.server.app[0].io packetSent:count 0
attr interpolationmode none
attr recordingmode count
attr source packetSent
attr title "packets sent, count"
scalar TsnLinearNetwork.server.app[0].io packetSent:sum(packetBytes) 0
attr interpolationmode none
attr recordingmode sum(packetBytes)
attr source packetSent
attr title "packets sent, sum(packetBytes)"
par TsnLinearNetwork.server.app[0] typename "\"inet.applications.udpapp.UdpSinkApp\""
par TsnLinearNetwork.server.app[0] interfaceTableModule "\"TsnLinearNetwork.server.interfaceTable\""
par TsnLinearNetwork.server.app[1].sink typename "\"inet.queueing.sink.PassivePacketSink\""
par TsnLinearNetwork.server.app[1].sink displayStringTextFormat "\"received %p pk (%l)\""
par TsnLinearNetwork.server.app[1].sink clockModule "\"\""
par TsnLinearNetwork.server.app[1].sink initialConsumptionOffset 0s
attr unit s
par TsnLinearNetwork.server.app[1].sink consumptionInterval 0s
attr unit s
par TsnLinearNetwork.server.app[1].sink scheduleForAbsoluteTime true
scalar TsnLinearNetwork.server.app[1].sink packets:count 4
attr recordingmode count
attr source packetPushed
attr title "packets, count"
attr unit pk
scalar TsnLinearNetwork.server.app[1].sink packetLengths:sum 8192
attr interpolationmode none
attr recordingmode sum
attr source packetLength(packetPushed)
attr title "packet lengths, sum"
attr unit b
statistic TsnLinearNetwork.server.app[1].sink packetLengths:histogram
field count 4
field mean 2048
field stddev 0
field min 2048
field max 2048
field sum 8192
field sqrsum 16777216
attr interpolationmode none
attr recordingmode histogram
attr source packetLength(packetPushed)
attr title "packet lengths"
attr unit b
bin	-inf	0
bin	2047	0
bin	2048	4
bin	2049	0
statistic TsnLinearNetwork.server.app[1].sink meanBitLifeTimePerPacket:histogram
field count 3
field mean 0.003038038705
field stddev 0.0026369379411742
field min 5.002e-05
field max 0.005039246115
field sum 0.009114116115
field sqrsum 4.1595920930443e-05
attr interpolationmode none
attr recordingmode histogram
attr source weightedMeanPerGroup(groupRegionsPerPacket(lifeTimePerRegion(packetPushed)))
attr title "mean bit life time per packet"
attr unit s
bin	-inf	0
bin	0	1
bin	0.0001	0
bin	0.0002	0
bin	0.0003	0
bin	0.0004	0
bin	0.0005	0
bin	0.0006	0
bin	0.0007	0
bin	0.0008	0
bin	0.0009	0
bin	0.001	0
bin	0.0011	0
bin	0.0012	0
bin	0.0013	0
bin	0.0014	0
bin	0.0015	0
bin	0.0016	0
bin	0.0017	0
bin	0.0018	0
bin	0.0019	0
bin	0.002	0
bin	0.0021	0
bin	0.0022	0
bin	0.0023	0
bin	0.0024	0
bin	0.0025	0
bin	0.0026	0
bin	0.0027	0
bin	0.0028	0
bin	0.0029	0
bin	0.003	0
bin	0.0031	0
bin	0.0032	0
bin	0.0033	0
bin	0.0034	0
bin	0.0035	0
bin	0.0036	0
bin	0.0037	0
bin	0.0038	0
bin	0.0039	0
bin	0.004	1
bin	0.0041	0
bin	0.0042	0
bin	0.0043	0
bin	0.0044	0
bin	0.0045	0
bin	0.0046	0
bin	0.0047	0
bin	0.0048	0
bin	0.0049	0
bin	0.005	1
bin	0.0051	0
bin	0.0052	0
bin	0.0053	0
bin	0.0054	0
bin	0.0055	0
bin	0.0056	0
bin	0.0057	0
bin	0.0058	0
bin	0.0059	0
bin	0.006	0
bin	0.0061	0
bin	0.0062	0
bin	0.0063	0
statistic TsnLinearNetwork.server.app[1].sink packetJitter:histogram
field count 3
field mean 1.6673333333333e-05
field stddev 0.004589115395536
field min -0.004989226115
field max 0.00402485
field sum 5.002e-05
field sqrsum 4.2120794227225e-05
attr interpolationmode none
attr recordingmode histogram
attr source jitter(weightedMeanPerGroup(groupRegionsPerPacket(lifeTimePerRegion(packetPushed))))
attr title "packet jitter"
attr unit s
bin	-inf	0
bin	-0.0074	0
bin	-0.0072	0
bin	-0.007	0
bin	-0.0068	0
bin	-0.0066	0
bin	-0.0064	0
bin	-0.0062	0
bin	-0.006	0
bin	-0.0058	0
bin	-0.0056	0
bin	-0.0054	0
bin	-0.0052	0
bin	-0.005	1
bin	-0.0048	0
bin	-0.0046	0
bin	-0.0044	0
bin	-0.0042	0
bin	-0.004	0
bin	-0.0038	0
bin	-0.0036	0
bin	-0.0034	0
bin	-0.0032	0
bin	-0.003	0
bin	-0.0028	0
bin	-0.0026	0
bin	-0.0024	0
bin	-0.0022	0
bin	-0.002	0
bin	-0.0018	0
bin	-0.0016	0
bin	-0.0014	0
bin	-0.0012	0
bin	-0.001	0
bin	-0.0008	0
bin	-0.0006	0
bin	-0.0004	0
bin	-0.0002	0
bin	0	0
bin	0.0002	0
bin	0.0004	0
bin	0.0006	0
bin	0.0008	0
bin	0.001	1
bin	0.0012	0
bin	0.0014	0
bin	0.0016	0
bin	0.0018	0
bin	0.002	0
bin	0.0022	0
bin	0.0024	0
bin	0.0026	0
bin	0.0028	0
bin	0.003	0
bin	0.0032	0
bin	0.0034	0
bin	0.0036	0
bin	0.0038	0
bin	0.004	1
bin	0.0042	0
bin	0.0044	0
bin	0.0046	0
bin	0.0048	0
bin	0.005	0
bin	0.0052	0
bin	0.0054	0
bin	0.0056	0
bin	0.0058	0
bin	0.006	0
bin	0.0062	0
bin	0.0064	0
statistic TsnLinearNetwork.server.app[1].sink packetDelayDifferenceToMean:histogram
field count 3
field mean 0.00082694021583333
field stddev 0.0018886523355655
field min -0.0005071980575
field max 0.002988018705
field sum 0.0024808206475
field sqrsum 9.1855056509616e-06
attr interpolationmode none
attr recordingmode histogram
attr source differenceToMean(weightedMeanPerGroup(groupRegionsPerPacket(lifeTimePerRegion(packetPushed))))
attr title "packet delay difference to mean"
attr unit s
bin	-inf	0
bin	-0.0014	0
bin	-0.0013	0
bin	-0.0012	0
bin	-0.0011	0
bin	-0.001	0
bin	-0.0009	0
bin	-0.0008	0
bin	-0.0007	0
bin	-0.0006	1
bin	-0.0005	0
bin	-0.0004	0
bin	-0.0003	0
bin	-0.0002	0
bin	-0.0001	0
bin	0	1
bin	0.0001	0
bin	0.0002	0
bin	0.0003	0
bin	0.0004	0
bin	0.0005	0
bin	0.0006	0
bin	0.0007	0
bin	0.0008	0
bin	0.0009	0
bin	0.001	0
bin	0.0011	0
bin	0.0012	0
bin	0.0013	0
bin	0.0014	0
bin	0.0015	0
bin	0.0016	0
bin	0.0017	0
bin	0.0018	0
bin	0.0019	0
bin	0.002	0
bin	0.0021	0
bin	0.0022	0
bin	0.0023	0
bin	0.0024	0
bin	0.0025	0
bin	0.0026	0
bin	0.0027	0
bin	0.0028	0
bin	0.0029	1
bin	0.003	0
bin	0.0031	0
bin	0.0032	0
bin	0.0033	0
bin	0.0034	0
bin	0.0035	0
bin	0.0036	0
bin	0.0037	0
bin	0.0038	0
bin	0.0039	0
statistic TsnLinearNetwork.server.app[1].sink packetDelayVariation:histogram
field count 3
field mean 0.00088675216102986
field stddev 0.00112559175279
field min 0
field max 0.0021530557885563
field sum 0.0026602564830896
field sqrsum 4.892901773171e-06
attr recordingmode histogram
attr source stddev(weightedMeanPerGroup(groupRegionsPerPacket(lifeTimePerRegion(packetPushed))))
attr title "packet delay variation"
attr unit s
bin	-inf	0
bin	0	1
bin	5e-05	0
bin	0.0001	0
bin	0.00015	0
bin	0.0002	0
bin	0.00025	0
bin	0.0003	0
bin	0.00035	0
bin	0.0004	0
bin	0.00045	0
bin	0.0005	1
bin	0.00055	0
bin	0.0006	0
bin	0.00065	0
bin	0.0007	0
bin	0.00075	0
bin	0.0008	0
bin	0.00085	0
bin	0.0009	0
bin	0.00095	0
bin	0.001	0
bin	0.00105	0
bin	0.0011	0
bin	0.00115	0
bin	0.0012	0
bin	0.00125	0
bin	0.0013	0
bin	0.00135	0
bin	0.0014	0
bin	0.00145	0
bin	0.0015	0
bin	0.00155	0
bin	0.0016	0
bin	0.00165	0
bin	0.0017	0
bin	0.00175	0
bin	0.0018	0
bin	0.00185	0
bin	0.0019	0
bin	0.00195	0
bin	0.002	0
bin	0.00205	0
bin	0.0021	0
bin	0.00215	1
bin	0.0022	0
bin	0.00225	0
bin	0.0023	0
bin	0.00235	0
bin	0.0024	0
bin	0.00245	0
bin	0.0025	0
bin	0.00255	0
bin	0.0026	0
bin	0.00265	0
bin	0.0027	0
scalar TsnLinearNetwork.server.app[1].sink droppedPackets:count 4
attr recordingmode count
attr source packetDropped
attr title "dropped packets, count"
attr unit pk
scalar TsnLinearNetwork.server.app[1].sink droppedPacketLengths:sum 8192
attr interpolationmode none
attr recordingmode sum
attr source packetLength(packetDropped)
attr title "dropped packet lengths, sum"
attr unit b
statistic TsnLinearNetwork.server.app[1].sink droppedPacketLengths:histogram
field count 4
field mean 2048
field stddev 0
field min 2048
field max 2048
field sum 8192
field sqrsum 16777216
attr interpolationmode none
attr recordingmode histogram
attr source packetLength(packetDropped)
attr title "dropped packet lengths"
attr unit b
bin	-inf	0
bin	2047	0
bin	2048	4
bin	2049	0
par TsnLinearNetwork.server.app[1].io typename "\"inet.applications.udpapp.UdpSocketIo\""
par TsnLinearNetwork.server.app[1].io interfaceTableModule "\"TsnLinearNetwork.server.app[1].interfaceTable\""
par TsnLinearNetwork.server.app[1].io localAddress "\"\""
par TsnLinearNetwork.server.app[1].io localPort 1001
par TsnLinearNetwork.server.app[1].io destAddress "\"\""
par TsnLinearNetwork.server.app[1].io destPort -1
par TsnLinearNetwork.server.app[1].io timeToLive -1
par TsnLinearNetwork.server.app[1].io dontFragment false
par TsnLinearNetwork.server.app[1].io dscp -1
par TsnLinearNetwork.server.app[1].io tos -1
par TsnLinearNetwork.server.app[1].io multicastInterface "\"\""
par TsnLinearNetwork.server.app[1].io multicastAddresses []
par TsnLinearNetwork.server.app[1].io receiveBroadcast false
par TsnLinearNetwork.server.app[1].io joinLocalMulticastGroups false
par TsnLinearNetwork.server.app[1].io stopOperationExtraTime -1s
attr unit s
par TsnLinearNetwork.server.app[1].io stopOperationTimeout 2s
attr unit s
scalar TsnLinearNetwork.server.app[1].io "packets sent" 0
scalar TsnLinearNetwork.server.app[1].io "packets received" 4
scalar TsnLinearNetwork.server.app[1].io packetReceived:count 4
attr interpolationmode none
attr recordingmode count
attr source packetReceived
attr title "packets received, count"
scalar TsnLinearNetwork.server.app[1].io packetReceived:sum(packetBytes) 1024
attr interpolationmode none
attr recordingmode sum(packetBytes)
attr source packetReceived
attr title "packets received, sum(packetBytes)"
scalar TsnLinearNetwork.server.app[1].io packetSent:count 0
attr interpolationmode none
attr recordingmode count
attr source packetSent
attr title "packets sent, count"
scalar TsnLinearNetwork.server.app[1].io packetSent:sum(packetBytes) 0
attr interpolationmode none
attr recordingmode sum(packetBytes)
attr source packetSent
attr title "packets sent, sum(packetBytes)"
par TsnLinearNetwork.server.app[1] typename "\"inet.applications.udpapp.UdpSinkApp\""
par TsnLinearNetwork.server.app[1] interfaceTableModule "\"TsnLinearNetwork.server.interfaceTable\""
par TsnLinearNetwork.server.at typename "\"inet.common.MessageDispatcher\""
par TsnLinearNetwork.server.at displayStringTextFormat "\"processed %p pk (%l)\""
par TsnLinearNetwork.server.at forwardServiceRegistration true
par TsnLinearNetwork.server.at forwardProtocolRegistration true
par TsnLinearNetwork.server typename "\"inet.node.tsn.TsnDevice\""
par TsnLinearNetwork.server hasStatus false
par TsnLinearNetwork.server osgModel "\"\""
par TsnLinearNetwork.server osgModelColor "\"\""
par TsnLinearNetwork.server canvasImage "\"\""
par TsnLinearNetwork.server canvasImageColor "\"\""
par TsnLinearNetwork.server recordPcap false
par TsnLinearNetwork.server numPcapRecorders 0
par TsnLinearNetwork.server numLoInterfaces 1
par TsnLinearNetwork.server numWlanInterfaces 0
par TsnLinearNetwork.server numEthInterfaces 0
par TsnLinearNetwork.server numPppInterfaces 0
par TsnLinearNetwork.server numTunInterfaces 0
par TsnLinearNetwork.server numVirtInterfaces 0
par TsnLinearNetwork.server fcsMode "\"declared\""
attr enum declared,computed
par TsnLinearNetwork.server hasIpv4 true
par TsnLinearNetwork.server hasIpv6 false
par TsnLinearNetwork.server hasGn false
par TsnLinearNetwork.server forwarding false
par TsnLinearNetwork.server multicastForwarding false
par TsnLinearNetwork.server hasUdp true
par TsnLinearNetwork.server hasTcp true
par TsnLinearNetwork.server hasSctp false
par TsnLinearNetwork.server numApps 2
par TsnLinearNetwork.server hasTimeSynchronization false
par TsnLinearNetwork.server hasIngressTrafficFiltering false
par TsnLinearNetwork.server hasEgressTrafficFiltering false
par TsnLinearNetwork.server hasEgressTrafficShaping false
par TsnLinearNetwork.server hasStreamRedundancy false
par TsnLinearNetwork.server hasIncomingStreams false
par TsnLinearNetwork.server hasOutgoingStreams false
par TsnLinearNetwork.server hasFramePreemption false
par TsnLinearNetwork.server hasCutthroughSwitching false
par TsnLinearNetwork typename "\"inet.networks.tsn.TsnLinearNetwork\""
par TsnLinearNetwork recordPcap false
par TsnLinearNetwork numPcapRecorders 0
par TsnLinearNetwork hasGlobalArp true

