version 3
run General-0-20251031-12:55:20-15580
attr configname General
attr datetime 20251031-12:55:20
attr datetimef 20251031-125520
attr experiment General
attr inifile ivn_tsn.ini
attr iterationvars ""
attr iterationvarsd ""
attr iterationvarsf ""
attr measurement ""
attr network IVN_TSN_Network
attr processid 15580
attr repetition 0
attr replication #0
attr resultdir results
attr runnumber 0
attr seedset 0
config image-path ../../inet/images
config network IVN_TSN_Network
config sim-time-limit 5s
config description "TSN features applied to In-Vehicle Networks"
config **.displayGateSchedules true
config **.gateFilter "\"**.eth[1].**\""
config **.gateScheduleVisualizer.height 20
config **.gateScheduleVisualizer.placementHint "\"top\""
config *.powerTrainECU.numApps 1
config *.powerTrainECU.app[0].typename UdpSinkApp
config *.powerTrainECU.app[0].io.localPort 1000
config *.adaptiveCruiseControlECU.numApps 4
config *.adaptiveCruiseControlECU.app[0].typename UdpSourceApp
config *.adaptiveCruiseControlECU.app[0].display-name "speed/torque command"
config *.adaptiveCruiseControlECU.app[0].io.destPort 1000
config *.adaptiveCruiseControlECU.app[0].source.productionInterval exponential(1ms)
config *.adaptiveCruiseControlECU.app[0].source.packetLength "128B - 64B"
config *.adaptiveCruiseControlECU.app[1].typename UdpSourceApp
config *.adaptiveCruiseControlECU.app[1].display-name "brake command"
config *.adaptiveCruiseControlECU.app[1].io.destPort 1004
config *.adaptiveCruiseControlECU.app[1].source.productionInterval exponential(1ms)
config *.adaptiveCruiseControlECU.app[1].source.packetLength "128B - 64B"
config *.adaptiveCruiseControlECU.app[2].typename UdpSinkApp
config *.adaptiveCruiseControlECU.app[2].io.localPort 1002
config *.adaptiveCruiseControlECU.app[3].typename UdpSinkApp
config *.adaptiveCruiseControlECU.app[3].io.localPort 1003
config *.adaptiveCruiseControlECU.hasOutgoingStreams true
config *.adaptiveCruiseControlECU.bridging.streamIdentifier.identifier.mapping "[{stream: \"speed/torque command\", packetFilter: expr(udp.destPort == 1000)},\n                                                         {stream: \"brake command\", packetFilter: expr(udp.destPort == 1004)}]"
config *.adaptiveCruiseControlECU.bridging.streamCoder.encoder.mapping "[{stream: \"speed/torque command\", pcp: 7},\n                                                 {stream: \"brake command\", pcp: 7}]"
config *.brakeECU.numApps 1
config *.brakeECU.app[0].typename UdpSinkApp
config *.brakeECU.app[0].io.localPort 1004
config *.infotainmentECU.numApps 2
config *.infotainmentECU.app[0].typename UdpSinkApp
config *.infotainmentECU.app[0].io.localPort 1005
config *.infotainmentECU.app[1].typename UdpSinkApp
config *.infotainmentECU.app[1].io.localPort 1006
config *.radarDistanceECU.numApps 1
config *.radarDistanceECU.app[0].typename UdpSourceApp
config *.radarDistanceECU.app[0].display-name "radar/distance data"
config *.radarDistanceECU.app[0].io.destPort 1002
config *.radarDistanceECU.app[0].source.productionInterval exponential(10ms)
config *.radarDistanceECU.app[0].source.packetLength "256B - 256B"
config *.radarDistanceECU.hasOutgoingStreams true
config *.radarDistanceECU.bridging.streamIdentifier.identifier.mapping "[{stream: \"radar/distance data\", packetFilter: expr(udp.destPort == 1002)}]"
config *.radarDistanceECU.bridging.streamCoder.encoder.mapping "[{stream: \"radar/distance data\", pcp: 5}]"
config *.laneDetectionECU.numApps 1
config *.laneDetectionECU.app[0].typename UdpSourceApp
config *.laneDetectionECU.app[0].display-name "lane/distance data"
config *.laneDetectionECU.app[0].io.destPort 1003
config *.laneDetectionECU.app[0].source.productionInterval exponential(10ms)
config *.laneDetectionECU.app[0].source.packetLength "256B - 256B"
config *.laneDetectionECU.hasOutgoingStreams true
config *.laneDetectionECU.bridging.streamIdentifier.identifier.mapping "[{stream: \"lane/distance data\", packetFilter: expr(udp.destPort == 1003)}]"
config *.laneDetectionECU.bridging.streamCoder.encoder.mapping "[{stream: \"lane/distance data\", pcp: 5}]"
config *.usbMediaECU.numApps 1
config *.usbMediaECU.app[0].typename UdpSourceApp
config *.usbMediaECU.app[0].display-name "download data"
config *.usbMediaECU.app[0].io.destPort 1005
config *.usbMediaECU.app[0].source.productionInterval exponential(100ms)
config *.usbMediaECU.app[0].source.packetLength "1500B - 1000B"
config *.usbMediaECU.hasOutgoingStreams true
config *.usbMediaECU.bridging.streamIdentifier.identifier.mapping "[{stream: \"download data\", packetFilter: expr(udp.destPort == 1005)}]"
config *.usbMediaECU.bridging.streamCoder.encoder.mapping "[{stream: \"download data\", pcp: 1}]"
config *.tirePressureMonitoringECU.numApps 1
config *.tirePressureMonitoringECU.app[0].typename UdpSourceApp
config *.tirePressureMonitoringECU.app[0].display-name "tire pressure data"
config *.tirePressureMonitoringECU.app[0].io.destPort 1006
config *.tirePressureMonitoringECU.app[0].source.productionInterval exponential(10ms)
config *.tirePressureMonitoringECU.app[0].source.packetLength "256B - 256B"
config *.tirePressureMonitoringECU.hasOutgoingStreams true
config *.tirePressureMonitoringECU.bridging.streamIdentifier.identifier.mapping "[{stream: \"tire pressure data\", packetFilter: expr(udp.destPort == 1006)}]"
config *.tirePressureMonitoringECU.bridging.streamCoder.encoder.mapping "[{stream: \"tire pressure data\", pcp: 5}]"
config *.tsnSwitch.hasEgressTrafficShaping true
config *.tsnSwitch.bridging.directionReverser.reverser.excludeEncapsulationProtocols "[\"ieee8021qctag\"]"
config *.tsnSwitch.eth[*].macLayer.queue.numTrafficClasses 8
config *.tsnSwitch.eth[*].macLayer.queue.*[7].display-name critical-priority
config *.tsnSwitch.eth[*].macLayer.queue.transmissionGate[7].offset 0ms
config *.tsnSwitch.eth[*].macLayer.queue.transmissionGate[7].durations "[6ms, 4ms]"
config *.tsnSwitch.eth[*].macLayer.queue.*[5].display-name medium-priority
config *.tsnSwitch.eth[*].macLayer.queue.transmissionGate[5].offset 6ms
config *.tsnSwitch.eth[*].macLayer.queue.transmissionGate[5].durations "[4ms, 6ms]"
config *.tsnSwitch.eth[*].macLayer.queue.*[1].display-name best-effort-priority
config *.tsnSwitch.eth[*].macLayer.queue.transmissionGate[1].offset 10ms
config *.tsnSwitch.eth[*].macLayer.queue.transmissionGate[1].durations "[2ms, 8ms]"
config *.tsnSwitch1.hasEgressTrafficShaping true
config *.tsnSwitch1.bridging.directionReverser.reverser.excludeEncapsulationProtocols "[\"ieee8021qctag\"]"
config *.tsnSwitch1.eth[*].macLayer.queue.numTrafficClasses 8
config *.tsnSwitch1.eth[*].macLayer.queue.*[7].display-name critical-priority
config *.tsnSwitch1.eth[*].macLayer.queue.transmissionGate[7].offset 0ms
config *.tsnSwitch1.eth[*].macLayer.queue.transmissionGate[7].durations "[6ms, 4ms]"
config *.tsnSwitch1.eth[*].macLayer.queue.*[5].display-name medium-priority
config *.tsnSwitch1.eth[*].macLayer.queue.transmissionGate[5].offset 6ms
config *.tsnSwitch1.eth[*].macLayer.queue.transmissionGate[5].durations "[4ms, 6ms]"
config *.tsnSwitch1.eth[*].macLayer.queue.*[1].display-name best-effort-priority
config *.tsnSwitch1.eth[*].macLayer.queue.transmissionGate[1].offset 10ms
config *.tsnSwitch1.eth[*].macLayer.queue.transmissionGate[1].durations "[2ms, 8ms]"
config *.tsnSwitch2.hasEgressTrafficShaping true
config *.tsnSwitch2.bridging.directionReverser.reverser.excludeEncapsulationProtocols "[\"ieee8021qctag\"]"
config *.tsnSwitch2.eth[*].macLayer.queue.numTrafficClasses 8
config *.tsnSwitch2.eth[*].macLayer.queue.*[7].display-name critical-priority
config *.tsnSwitch2.eth[*].macLayer.queue.transmissionGate[7].offset 0ms
config *.tsnSwitch2.eth[*].macLayer.queue.transmissionGate[7].durations "[6ms, 4ms]"
config *.tsnSwitch2.eth[*].macLayer.queue.*[5].display-name medium-priority
config *.tsnSwitch2.eth[*].macLayer.queue.transmissionGate[5].offset 6ms
config *.tsnSwitch2.eth[*].macLayer.queue.transmissionGate[5].durations "[4ms, 6ms]"
config *.tsnSwitch2.eth[*].macLayer.queue.*[1].display-name best-effort-priority
config *.tsnSwitch2.eth[*].macLayer.queue.transmissionGate[1].offset 10ms
config *.tsnSwitch2.eth[*].macLayer.queue.transmissionGate[1].durations "[2ms, 8ms]"

vector 0 IVN_TSN_Network.powerTrainECU.ethernet.macHeaderInserter incomingPacketLengths:vector ETV
attr interpolationmode none
attr recordingmode vector
attr source "packetLength(merge(packetPushedIn, packetPulledIn))"
attr title "incoming packet lengths"
attr unit b
vector 1 IVN_TSN_Network.powerTrainECU.ethernet.macHeaderInserter incomingDataRate:vector ETV
attr interpolationmode linear
attr recordingmode vector
attr source "throughput(merge(packetPushedIn, packetPulledIn))"
attr title "incoming data rate"
attr unit bps
vector 2 IVN_TSN_Network.powerTrainECU.ethernet.macHeaderInserter outgoingPacketLengths:vector ETV
attr interpolationmode none
attr recordingmode vector
attr source "packetLength(merge(packetPushedOut, packetPulledOut))"
attr title "outgoing packet lengths"
attr unit b
vector 3 IVN_TSN_Network.powerTrainECU.ethernet.macHeaderInserter outgoingDataRate:vector ETV
attr interpolationmode linear
attr recordingmode vector
attr source "throughput(merge(packetPushedOut, packetPulledOut))"
attr title "outgoing data rate"
attr unit bps
vector 4 IVN_TSN_Network.powerTrainECU.ethernet.macHeaderInserter flowIncomingPacketLengths:vector ETV
attr interpolationmode none
attr recordingmode vector
attr source "packetLength(demuxFlow(merge(packetPushedIn, packetPulledIn)))"
attr title "flow specific incoming packet lengths"
attr unit b
vector 5 IVN_TSN_Network.powerTrainECU.ethernet.macHeaderInserter flowIncomingDataRate:vector ETV
attr interpolationmode linear
attr recordingmode vector
attr source "throughput(demuxFlow(merge(packetPushedIn, packetPulledIn)))"
attr title "flow specific incoming data rate"
attr unit bps
vector 6 IVN_TSN_Network.powerTrainECU.ethernet.macHeaderInserter flowOutgoingPacketLengths:vector ETV
attr interpolationmode none
attr recordingmode vector
attr source "packetLength(demuxFlow(merge(packetPushedOut, packetPulledOut)))"
attr title "flow specific outgoing packet lengths"
attr unit b
vector 7 IVN_TSN_Network.powerTrainECU.ethernet.macHeaderInserter flowOutgoingDataRate:vector ETV
attr interpolationmode linear
attr recordingmode vector
attr source "throughput(demuxFlow(merge(packetPushedOut, packetPulledOut)))"
attr title "flow specific outgoing data rate"
attr unit bps
vector 8 IVN_TSN_Network.powerTrainECU.ethernet.paddingInserter incomingPacketLengths:vector ETV
attr interpolationmode none
attr recordingmode vector
attr source "packetLength(merge(packetPushedIn, packetPulledIn))"
attr title "incoming packet lengths"
attr unit b
vector 9 IVN_TSN_Network.powerTrainECU.ethernet.paddingInserter incomingDataRate:vector ETV
attr interpolationmode linear
attr recordingmode vector
attr source "throughput(merge(packetPushedIn, packetPulledIn))"
attr title "incoming data rate"
attr unit bps
vector 10 IVN_TSN_Network.powerTrainECU.ethernet.paddingInserter outgoingPacketLengths:vector ETV
attr interpolationmode none
attr recordingmode vector
attr source "packetLength(merge(packetPushedOut, packetPulledOut))"
attr title "outgoing packet lengths"
attr unit b
vector 11 IVN_TSN_Network.powerTrainECU.ethernet.paddingInserter outgoingDataRate:vector ETV
attr interpolationmode linear
attr recordingmode vector
attr source "throughput(merge(packetPushedOut, packetPulledOut))"
attr title "outgoing data rate"
attr unit bps
vector 12 IVN_TSN_Network.powerTrainECU.ethernet.paddingInserter flowIncomingPacketLengths:vector ETV
attr interpolationmode none
attr recordingmode vector
attr source "packetLength(demuxFlow(merge(packetPushedIn, packetPulledIn)))"
attr title "flow specific incoming packet lengths"
attr unit b
vector 13 IVN_TSN_Network.powerTrainECU.ethernet.paddingInserter flowIncomingDataRate:vector ETV
attr interpolationmode linear
attr recordingmode vector
attr source "throughput(demuxFlow(merge(packetPushedIn, packetPulledIn)))"
attr title "flow specific incoming data rate"
attr unit bps
vector 14 IVN_TSN_Network.powerTrainECU.ethernet.paddingInserter flowOutgoingPacketLengths:vector ETV
attr interpolationmode none
attr recordingmode vector
attr source "packetLength(demuxFlow(merge(packetPushedOut, packetPulledOut)))"
attr title "flow specific outgoing packet lengths"
attr unit b
vector 15 IVN_TSN_Network.powerTrainECU.ethernet.paddingInserter flowOutgoingDataRate:vector ETV
attr interpolationmode linear
attr recordingmode vector
attr source "throughput(demuxFlow(merge(packetPushedOut, packetPulledOut)))"
attr title "flow specific outgoing data rate"
attr unit bps
vector 16 IVN_TSN_Network.powerTrainECU.ethernet.fcsInserter incomingPacketLengths:vector ETV
attr interpolationmode none
attr recordingmode vector
attr source "packetLength(merge(packetPushedIn, packetPulledIn))"
attr title "incoming packet lengths"
attr unit b
vector 17 IVN_TSN_Network.powerTrainECU.ethernet.fcsInserter incomingDataRate:vector ETV
attr interpolationmode linear
attr recordingmode vector
attr source "throughput(merge(packetPushedIn, packetPulledIn))"
attr title "incoming data rate"
attr unit bps
vector 18 IVN_TSN_Network.powerTrainECU.ethernet.fcsInserter outgoingPacketLengths:vector ETV
attr interpolationmode none
attr recordingmode vector
attr source "packetLength(merge(packetPushedOut, packetPulledOut))"
attr title "outgoing packet lengths"
attr unit b
vector 19 IVN_TSN_Network.powerTrainECU.ethernet.fcsInserter outgoingDataRate:vector ETV
attr interpolationmode linear
attr recordingmode vector
attr source "throughput(merge(packetPushedOut, packetPulledOut))"
attr title "outgoing data rate"
attr unit bps
vector 20 IVN_TSN_Network.powerTrainECU.ethernet.fcsInserter flowIncomingPacketLengths:vector ETV
attr interpolationmode none
attr recordingmode vector
attr source "packetLength(demuxFlow(merge(packetPushedIn, packetPulledIn)))"
attr title "flow specific incoming packet lengths"
attr unit b
vector 21 IVN_TSN_Network.powerTrainECU.ethernet.fcsInserter flowIncomingDataRate:vector ETV
attr interpolationmode linear
attr recordingmode vector
attr source "throughput(demuxFlow(merge(packetPushedIn, packetPulledIn)))"
attr title "flow specific incoming data rate"
attr unit bps
vector 22 IVN_TSN_Network.powerTrainECU.ethernet.fcsInserter flowOutgoingPacketLengths:vector ETV
attr interpolationmode none
attr recordingmode vector
attr source "packetLength(demuxFlow(merge(packetPushedOut, packetPulledOut)))"
attr title "flow specific outgoing packet lengths"
attr unit b
vector 23 IVN_TSN_Network.powerTrainECU.ethernet.fcsInserter flowOutgoingDataRate:vector ETV
attr interpolationmode linear
attr recordingmode vector
attr source "throughput(demuxFlow(merge(packetPushedOut, packetPulledOut)))"
attr title "flow specific outgoing data rate"
attr unit bps
vector 24 IVN_TSN_Network.powerTrainECU.ethernet.macHeaderChecker incomingPacketLengths:vector ETV
attr interpolationmode none
attr recordingmode vector
attr source "packetLength(merge(packetPushedIn, packetPulledIn))"
attr title "incoming packet lengths"
attr unit b
vector 25 IVN_TSN_Network.powerTrainECU.ethernet.macHeaderChecker incomingDataRate:vector ETV
attr interpolationmode linear
attr recordingmode vector
attr source "throughput(merge(packetPushedIn, packetPulledIn))"
attr title "incoming data rate"
attr unit bps
vector 26 IVN_TSN_Network.powerTrainECU.ethernet.macHeaderChecker outgoingPacketLengths:vector ETV
attr interpolationmode none
attr recordingmode vector
attr source "packetLength(merge(packetPushedOut, packetPulledOut))"
attr title "outgoing packet lengths"
attr unit b
vector 27 IVN_TSN_Network.powerTrainECU.ethernet.macHeaderChecker outgoingDataRate:vector ETV
attr interpolationmode linear
attr recordingmode vector
attr source "throughput(merge(packetPushedOut, packetPulledOut))"
attr title "outgoing data rate"
attr unit bps
vector 28 IVN_TSN_Network.powerTrainECU.ethernet.macHeaderChecker droppedPacketLengths:vector ETV
attr interpolationmode none
attr recordingmode vector
attr source packetLength(packetDropped)
attr title "dropped packet lengths"
attr unit b
vector 29 IVN_TSN_Network.powerTrainECU.ethernet.macHeaderChecker droppedDataRate:vector ETV
attr interpolationmode linear
attr recordingmode vector
attr source throughput(packetDropped)
attr title "dropped data rate"
attr unit bps
vector 30 IVN_TSN_Network.powerTrainECU.ethernet.macHeaderChecker flowIncomingPacketLengths:vector ETV
attr interpolationmode none
attr recordingmode vector
attr source "packetLength(demuxFlow(merge(packetPushedIn, packetPulledIn)))"
attr title "flow specific incoming packet lengths"
attr unit b
vector 31 IVN_TSN_Network.powerTrainECU.ethernet.macHeaderChecker flowIncomingDataRate:vector ETV
attr interpolationmode linear
attr recordingmode vector
attr source "throughput(demuxFlow(merge(packetPushedIn, packetPulledIn)))"
attr title "flow specific incoming data rate"
attr unit bps
vector 32 IVN_TSN_Network.powerTrainECU.ethernet.macHeaderChecker flowOutgoingPacketLengths:vector ETV
attr interpolationmode none
attr recordingmode vector
attr source "packetLength(demuxFlow(merge(packetPushedOut, packetPulledOut)))"
attr title "flow specific outgoing packet lengths"
attr unit b
vector 33 IVN_TSN_Network.powerTrainECU.ethernet.macHeaderChecker flowOutgoingDataRate:vector ETV
attr interpolationmode linear
attr recordingmode vector
attr source "throughput(demuxFlow(merge(packetPushedOut, packetPulledOut)))"
attr title "flow specific outgoing data rate"
attr unit bps
vector 34 IVN_TSN_Network.powerTrainECU.ethernet.macHeaderChecker flowDroppedPacketLengths:vector ETV
attr interpolationmode none
attr recordingmode vector
attr source packetLength(demuxFlow(packetDropped))
attr title "flow specific dropped packet lengths"
attr unit b
vector 35 IVN_TSN_Network.powerTrainECU.ethernet.macHeaderChecker flowDroppedDataRate:vector ETV
attr interpolationmode linear
attr recordingmode vector
attr source throughput(demuxFlow(packetDropped))
attr title "flow specific dropped data rate"
attr unit bps
vector 36 IVN_TSN_Network.powerTrainECU.ethernet.fcsChecker incomingPacketLengths:vector ETV
attr interpolationmode none
attr recordingmode vector
attr source "packetLength(merge(packetPushedIn, packetPulledIn))"
attr title "incoming packet lengths"
attr unit b
vector 37 IVN_TSN_Network.powerTrainECU.ethernet.fcsChecker incomingDataRate:vector ETV
attr interpolationmode linear
attr recordingmode vector
attr source "throughput(merge(packetPushedIn, packetPulledIn))"
attr title "incoming data rate"
attr unit bps
vector 38 IVN_TSN_Network.powerTrainECU.ethernet.fcsChecker outgoingPacketLengths:vector ETV
attr interpolationmode none
attr recordingmode vector
attr source "packetLength(merge(packetPushedOut, packetPulledOut))"
attr title "outgoing packet lengths"
attr unit b
vector 39 IVN_TSN_Network.powerTrainECU.ethernet.fcsChecker outgoingDataRate:vector ETV
attr interpolationmode linear
attr recordingmode vector
attr source "throughput(merge(packetPushedOut, packetPulledOut))"
attr title "outgoing data rate"
attr unit bps
vector 40 IVN_TSN_Network.powerTrainECU.ethernet.fcsChecker droppedPacketLengths:vector ETV
attr interpolationmode none
attr recordingmode vector
attr source packetLength(packetDropped)
attr title "dropped packet lengths"
attr unit b
vector 41 IVN_TSN_Network.powerTrainECU.ethernet.fcsChecker droppedDataRate:vector ETV
attr interpolationmode linear
attr recordingmode vector
attr source throughput(packetDropped)
attr title "dropped data rate"
attr unit bps
vector 42 IVN_TSN_Network.powerTrainECU.ethernet.fcsChecker flowIncomingPacketLengths:vector ETV
attr interpolationmode none
attr recordingmode vector
attr source "packetLength(demuxFlow(merge(packetPushedIn, packetPulledIn)))"
attr title "flow specific incoming packet lengths"
attr unit b
vector 43 IVN_TSN_Network.powerTrainECU.ethernet.fcsChecker flowIncomingDataRate:vector ETV
attr interpolationmode linear
attr recordingmode vector
attr source "throughput(demuxFlow(merge(packetPushedIn, packetPulledIn)))"
attr title "flow specific incoming data rate"
attr unit bps
vector 44 IVN_TSN_Network.powerTrainECU.ethernet.fcsChecker flowOutgoingPacketLengths:vector ETV
attr interpolationmode none
attr recordingmode vector
attr source "packetLength(demuxFlow(merge(packetPushedOut, packetPulledOut)))"
attr title "flow specific outgoing packet lengths"
attr unit b
vector 45 IVN_TSN_Network.powerTrainECU.ethernet.fcsChecker flowOutgoingDataRate:vector ETV
attr interpolationmode linear
attr recordingmode vector
attr source "throughput(demuxFlow(merge(packetPushedOut, packetPulledOut)))"
attr title "flow specific outgoing data rate"
attr unit bps
vector 46 IVN_TSN_Network.powerTrainECU.ethernet.fcsChecker flowDroppedPacketLengths:vector ETV
attr interpolationmode none
attr recordingmode vector
attr source packetLength(demuxFlow(packetDropped))
attr title "flow specific dropped packet lengths"
attr unit b
vector 47 IVN_TSN_Network.powerTrainECU.ethernet.fcsChecker flowDroppedDataRate:vector ETV
attr interpolationmode linear
attr recordingmode vector
attr source throughput(demuxFlow(packetDropped))
attr title "flow specific dropped data rate"
attr unit bps
vector 48 IVN_TSN_Network.powerTrainECU.lo[0].lo rcvdPkFromHl:vector(packetBytes) ETV
attr interpolationmode none
attr recordingmode vector(packetBytes)
attr source packetReceivedFromUpper
attr title "packets received from higher layer, packetBytes"
vector 49 IVN_TSN_Network.powerTrainECU.lo[0].lo passedUpPk:vector(packetBytes) ETV
attr interpolationmode none
attr recordingmode vector(packetBytes)
attr source packetSentToUpper
attr title "packets passed to higher layer, packetBytes"
vector 50 IVN_TSN_Network.powerTrainECU.lo[0] packetDropInterfaceDown:vector(packetBytes) ETV
attr interpolationmode none
attr recordingmode vector(packetBytes)
attr source packetDropReasonIsInterfaceDown(packetDropped)
attr title "packet drops: interface down, packetBytes"
vector 51 IVN_TSN_Network.powerTrainECU.lo[0] packetDropNoCarrier:vector(packetBytes) ETV
attr interpolationmode none
attr recordingmode vector(packetBytes)
attr source packetDropReasonIsNoCarrier(packetDropped)
attr title "packet drops: no carrier, packetBytes"
vector 52 IVN_TSN_Network.powerTrainECU.eth[0].macLayer.queue queueLength:vector ETV
attr autoWarmupFilter false
attr interpolationmode sample-hold
attr recordingmode vector
attr source "warmup(atomic(constant0(packetPushEnded) + count(packetPushStarted) - count(packetPulled) - count(packetRemoved) - count(packetDropped)))"
attr title "queue length"
attr unit pk
vector 53 IVN_TSN_Network.powerTrainECU.eth[0].macLayer.queue queueBitLength:vector ETV
attr autoWarmupFilter false
attr interpolationmode sample-hold
attr recordingmode vector
attr source "warmup(atomic(constant0(packetPushEnded) + sum(packetLength(packetPushStarted)) - sum(packetLength(packetPulled)) - sum(packetLength(packetRemoved)) - sum(packetLength(packetDropped))))"
attr title "queue bit length"
attr unit b
vector 54 IVN_TSN_Network.powerTrainECU.eth[0].macLayer.queue queueingTime:vector ETV
attr interpolationmode none
attr recordingmode vector
attr source queueingTime(packetPulled)
attr title "queueing times"
attr unit s
vector 55 IVN_TSN_Network.powerTrainECU.eth[0].macLayer.queue incomingPacketLengths:vector ETV
attr interpolationmode none
attr recordingmode vector
attr source packetLength(packetPushStarted)
attr title "incoming packet lengths"
attr unit b
vector 56 IVN_TSN_Network.powerTrainECU.eth[0].macLayer.queue incomingDataRate:vector ETV
attr interpolationmode linear
attr recordingmode vector
attr source throughput(packetPushStarted)
attr title "incoming datarate"
attr unit bps
vector 57 IVN_TSN_Network.powerTrainECU.eth[0].macLayer.queue outgoingPacketLengths:vector ETV
attr interpolationmode none
attr recordingmode vector
attr source packetLength(packetPulled)
attr title "outgoing packet lengths"
attr unit b
vector 58 IVN_TSN_Network.powerTrainECU.eth[0].macLayer.queue outgoingDataRate:vector ETV
attr interpolationmode linear
attr recordingmode vector
attr source throughput(packetPulled)
attr title "outgoing datarate"
attr unit bps
vector 59 IVN_TSN_Network.powerTrainECU.eth[0].macLayer.queue droppedPacketLengthsQueueOverflow:vector ETV
attr interpolationmode none
attr recordingmode vector
attr source packetLength(packetDropReasonIsQueueOverflow(packetDropped))
attr title "dropped packet lengths: queue overflow"
attr unit b
vector 60 IVN_TSN_Network.powerTrainECU.eth[0].macLayer.queue flowQueueingTime:vector ETV
attr interpolationmode none
attr recordingmode vector
attr source queueingTime(demuxFlow(packetPulled))
attr title "flow queueing times"
attr unit s
vector 61 IVN_TSN_Network.powerTrainECU.eth[0].macLayer.queue flowIncomingDataRate:vector ETV
attr interpolationmode linear
attr recordingmode vector
attr source throughput(flowPacketLength(demuxFlow(packetPushStarted)))
attr title "flow specific incoming data rate"
attr unit bps
vector 62 IVN_TSN_Network.powerTrainECU.eth[0].macLayer.queue flowOutgoingDataRate:vector ETV
attr interpolationmode linear
attr recordingmode vector
attr source throughput(flowPacketLength(demuxFlow(packetPulled)))
attr title "flow specific outgoing data rate"
attr unit bps
vector 63 IVN_TSN_Network.powerTrainECU.eth[0].macLayer.server incomingPacketLengths:vector ETV
attr interpolationmode none
attr recordingmode vector
attr source packetLength(packetPulled)
attr title "incoming packet lengths"
attr unit b
vector 64 IVN_TSN_Network.powerTrainECU.eth[0].macLayer.server incomingDataRate:vector ETV
attr interpolationmode linear
attr recordingmode vector
attr source throughput(packetPulled)
attr title "incoming datarate"
attr unit bps
vector 65 IVN_TSN_Network.powerTrainECU.eth[0].macLayer.server outgoingPacketLengths:vector ETV
attr interpolationmode none
attr recordingmode vector
attr source packetLength(packetPushed)
attr title "outgoing packet lengths"
attr unit b
vector 66 IVN_TSN_Network.powerTrainECU.eth[0].macLayer.server outgoingDataRate:vector ETV
attr interpolationmode linear
attr recordingmode vector
attr source throughput(packetPushed)
attr title "outgoing datarate"
attr unit bps
vector 67 IVN_TSN_Network.powerTrainECU.eth[0].macLayer.outboundEmitter incomingPacketLengths:vector ETV
attr interpolationmode none
attr recordingmode vector
attr source "packetLength(merge(packetPushedIn, packetPulledIn))"
attr title "incoming packet lengths"
attr unit b
vector 68 IVN_TSN_Network.powerTrainECU.eth[0].macLayer.outboundEmitter incomingDataRate:vector ETV
attr interpolationmode linear
attr recordingmode vector
attr source "throughput(merge(packetPushedIn, packetPulledIn))"
attr title "incoming data rate"
attr unit bps
vector 69 IVN_TSN_Network.powerTrainECU.eth[0].macLayer.outboundEmitter outgoingPacketLengths:vector ETV
attr interpolationmode none
attr recordingmode vector
attr source "packetLength(merge(packetPushedOut, packetPulledOut))"
attr title "outgoing packet lengths"
attr unit b
vector 70 IVN_TSN_Network.powerTrainECU.eth[0].macLayer.outboundEmitter outgoingDataRate:vector ETV
attr interpolationmode linear
attr recordingmode vector
attr source "throughput(merge(packetPushedOut, packetPulledOut))"
attr title "outgoing data rate"
attr unit bps
vector 71 IVN_TSN_Network.powerTrainECU.eth[0].macLayer.outboundEmitter flowIncomingPacketLengths:vector ETV
attr interpolationmode none
attr recordingmode vector
attr source "packetLength(demuxFlow(merge(packetPushedIn, packetPulledIn)))"
attr title "flow specific incoming packet lengths"
attr unit b
vector 72 IVN_TSN_Network.powerTrainECU.eth[0].macLayer.outboundEmitter flowIncomingDataRate:vector ETV
attr interpolationmode linear
attr recordingmode vector
attr source "throughput(demuxFlow(merge(packetPushedIn, packetPulledIn)))"
attr title "flow specific incoming data rate"
attr unit bps
vector 73 IVN_TSN_Network.powerTrainECU.eth[0].macLayer.outboundEmitter flowOutgoingPacketLengths:vector ETV
attr interpolationmode none
attr recordingmode vector
attr source "packetLength(demuxFlow(merge(packetPushedOut, packetPulledOut)))"
attr title "flow specific outgoing packet lengths"
attr unit b
vector 74 IVN_TSN_Network.powerTrainECU.eth[0].macLayer.outboundEmitter flowOutgoingDataRate:vector ETV
attr interpolationmode linear
attr recordingmode vector
attr source "throughput(demuxFlow(merge(packetPushedOut, packetPulledOut)))"
attr title "flow specific outgoing data rate"
attr unit bps
vector 75 IVN_TSN_Network.powerTrainECU.eth[0].macLayer.fcsChecker incomingPacketLengths:vector ETV
attr interpolationmode none
attr recordingmode vector
attr source "packetLength(merge(packetPushedIn, packetPulledIn))"
attr title "incoming packet lengths"
attr unit b
vector 76 IVN_TSN_Network.powerTrainECU.eth[0].macLayer.fcsChecker incomingDataRate:vector ETV
attr interpolationmode linear
attr recordingmode vector
attr source "throughput(merge(packetPushedIn, packetPulledIn))"
attr title "incoming data rate"
attr unit bps
vector 77 IVN_TSN_Network.powerTrainECU.eth[0].macLayer.fcsChecker outgoingPacketLengths:vector ETV
attr interpolationmode none
attr recordingmode vector
attr source "packetLength(merge(packetPushedOut, packetPulledOut))"
attr title "outgoing packet lengths"
attr unit b
vector 78 IVN_TSN_Network.powerTrainECU.eth[0].macLayer.fcsChecker outgoingDataRate:vector ETV
attr interpolationmode linear
attr recordingmode vector
attr source "throughput(merge(packetPushedOut, packetPulledOut))"
attr title "outgoing data rate"
attr unit bps
vector 79 IVN_TSN_Network.powerTrainECU.eth[0].macLayer.fcsChecker droppedPacketLengths:vector ETV
attr interpolationmode none
attr recordingmode vector
attr source packetLength(packetDropped)
attr title "dropped packet lengths"
attr unit b
vector 80 IVN_TSN_Network.powerTrainECU.eth[0].macLayer.fcsChecker droppedDataRate:vector ETV
attr interpolationmode linear
attr recordingmode vector
attr source throughput(packetDropped)
attr title "dropped data rate"
attr unit bps
vector 81 IVN_TSN_Network.powerTrainECU.eth[0].macLayer.fcsChecker flowIncomingPacketLengths:vector ETV
attr interpolationmode none
attr recordingmode vector
attr source "packetLength(demuxFlow(merge(packetPushedIn, packetPulledIn)))"
attr title "flow specific incoming packet lengths"
attr unit b
vector 82 IVN_TSN_Network.powerTrainECU.eth[0].macLayer.fcsChecker flowIncomingDataRate:vector ETV
attr interpolationmode linear
attr recordingmode vector
attr source "throughput(demuxFlow(merge(packetPushedIn, packetPulledIn)))"
attr title "flow specific incoming data rate"
attr unit bps
vector 83 IVN_TSN_Network.powerTrainECU.eth[0].macLayer.fcsChecker flowOutgoingPacketLengths:vector ETV
attr interpolationmode none
attr recordingmode vector
attr source "packetLength(demuxFlow(merge(packetPushedOut, packetPulledOut)))"
attr title "flow specific outgoing packet lengths"
attr unit b
vector 84 IVN_TSN_Network.powerTrainECU.eth[0].macLayer.fcsChecker flowOutgoingDataRate:vector ETV
attr interpolationmode linear
attr recordingmode vector
attr source "throughput(demuxFlow(merge(packetPushedOut, packetPulledOut)))"
attr title "flow specific outgoing data rate"
attr unit bps
vector 85 IVN_TSN_Network.powerTrainECU.eth[0].macLayer.fcsChecker flowDroppedPacketLengths:vector ETV
attr interpolationmode none
attr recordingmode vector
attr source packetLength(demuxFlow(packetDropped))
attr title "flow specific dropped packet lengths"
attr unit b
vector 86 IVN_TSN_Network.powerTrainECU.eth[0].macLayer.fcsChecker flowDroppedDataRate:vector ETV
attr interpolationmode linear
attr recordingmode vector
attr source throughput(demuxFlow(packetDropped))
attr title "flow specific dropped data rate"
attr unit bps
vector 87 IVN_TSN_Network.powerTrainECU.eth[0].macLayer.inboundEmitter incomingPacketLengths:vector ETV
attr interpolationmode none
attr recordingmode vector
attr source "packetLength(merge(packetPushedIn, packetPulledIn))"
attr title "incoming packet lengths"
attr unit b
vector 88 IVN_TSN_Network.powerTrainECU.eth[0].macLayer.inboundEmitter incomingDataRate:vector ETV
attr interpolationmode linear
attr recordingmode vector
attr source "throughput(merge(packetPushedIn, packetPulledIn))"
attr title "incoming data rate"
attr unit bps
vector 89 IVN_TSN_Network.powerTrainECU.eth[0].macLayer.inboundEmitter outgoingPacketLengths:vector ETV
attr interpolationmode none
attr recordingmode vector
attr source "packetLength(merge(packetPushedOut, packetPulledOut))"
attr title "outgoing packet lengths"
attr unit b
vector 90 IVN_TSN_Network.powerTrainECU.eth[0].macLayer.inboundEmitter outgoingDataRate:vector ETV
attr interpolationmode linear
attr recordingmode vector
attr source "throughput(merge(packetPushedOut, packetPulledOut))"
attr title "outgoing data rate"
attr unit bps
vector 91 IVN_TSN_Network.powerTrainECU.eth[0].macLayer.inboundEmitter flowIncomingPacketLengths:vector ETV
attr interpolationmode none
attr recordingmode vector
attr source "packetLength(demuxFlow(merge(packetPushedIn, packetPulledIn)))"
attr title "flow specific incoming packet lengths"
attr unit b
vector 92 IVN_TSN_Network.powerTrainECU.eth[0].macLayer.inboundEmitter flowIncomingDataRate:vector ETV
attr interpolationmode linear
attr recordingmode vector
attr source "throughput(demuxFlow(merge(packetPushedIn, packetPulledIn)))"
attr title "flow specific incoming data rate"
attr unit bps
vector 93 IVN_TSN_Network.powerTrainECU.eth[0].macLayer.inboundEmitter flowOutgoingPacketLengths:vector ETV
attr interpolationmode none
attr recordingmode vector
attr source "packetLength(demuxFlow(merge(packetPushedOut, packetPulledOut)))"
attr title "flow specific outgoing packet lengths"
attr unit b
vector 94 IVN_TSN_Network.powerTrainECU.eth[0].macLayer.inboundEmitter flowOutgoingDataRate:vector ETV
attr interpolationmode linear
attr recordingmode vector
attr source "throughput(demuxFlow(merge(packetPushedOut, packetPulledOut)))"
attr title "flow specific outgoing data rate"
attr unit bps
vector 95 IVN_TSN_Network.powerTrainECU.eth[0].phyLayer.phyHeaderInserter incomingPacketLengths:vector ETV
attr interpolationmode none
attr recordingmode vector
attr source "packetLength(merge(packetPushedIn, packetPulledIn))"
attr title "incoming packet lengths"
attr unit b
vector 96 IVN_TSN_Network.powerTrainECU.eth[0].phyLayer.phyHeaderInserter incomingDataRate:vector ETV
attr interpolationmode linear
attr recordingmode vector
attr source "throughput(merge(packetPushedIn, packetPulledIn))"
attr title "incoming data rate"
attr unit bps
vector 97 IVN_TSN_Network.powerTrainECU.eth[0].phyLayer.phyHeaderInserter outgoingPacketLengths:vector ETV
attr interpolationmode none
attr recordingmode vector
attr source "packetLength(merge(packetPushedOut, packetPulledOut))"
attr title "outgoing packet lengths"
attr unit b
vector 98 IVN_TSN_Network.powerTrainECU.eth[0].phyLayer.phyHeaderInserter outgoingDataRate:vector ETV
attr interpolationmode linear
attr recordingmode vector
attr source "throughput(merge(packetPushedOut, packetPulledOut))"
attr title "outgoing data rate"
attr unit bps
vector 99 IVN_TSN_Network.powerTrainECU.eth[0].phyLayer.phyHeaderInserter flowIncomingPacketLengths:vector ETV
attr interpolationmode none
attr recordingmode vector
attr source "packetLength(demuxFlow(merge(packetPushedIn, packetPulledIn)))"
attr title "flow specific incoming packet lengths"
attr unit b
vector 100 IVN_TSN_Network.powerTrainECU.eth[0].phyLayer.phyHeaderInserter flowIncomingDataRate:vector ETV
attr interpolationmode linear
attr recordingmode vector
attr source "throughput(demuxFlow(merge(packetPushedIn, packetPulledIn)))"
attr title "flow specific incoming data rate"
attr unit bps
vector 101 IVN_TSN_Network.powerTrainECU.eth[0].phyLayer.phyHeaderInserter flowOutgoingPacketLengths:vector ETV
attr interpolationmode none
attr recordingmode vector
attr source "packetLength(demuxFlow(merge(packetPushedOut, packetPulledOut)))"
attr title "flow specific outgoing packet lengths"
attr unit b
vector 102 IVN_TSN_Network.powerTrainECU.eth[0].phyLayer.phyHeaderInserter flowOutgoingDataRate:vector ETV
attr interpolationmode linear
attr recordingmode vector
attr source "throughput(demuxFlow(merge(packetPushedOut, packetPulledOut)))"
attr title "flow specific outgoing data rate"
attr unit bps
vector 103 IVN_TSN_Network.powerTrainECU.eth[0].phyLayer.interFrameGapInserter interpacketGap:vector ETV
attr interpolationmode sample-hold
attr recordingmode vector
attr source "count(interpacketGapStarted) - count(interpacketGapEnded)"
attr title "interpacket gap state"
attr type int
vector 104 IVN_TSN_Network.powerTrainECU.eth[0].phyLayer.outboundEmitter incomingPacketLengths:vector ETV
attr interpolationmode none
attr recordingmode vector
attr source "packetLength(merge(packetPushedIn, packetPulledIn))"
attr title "incoming packet lengths"
attr unit b
vector 105 IVN_TSN_Network.powerTrainECU.eth[0].phyLayer.outboundEmitter incomingDataRate:vector ETV
attr interpolationmode linear
attr recordingmode vector
attr source "throughput(merge(packetPushedIn, packetPulledIn))"
attr title "incoming data rate"
attr unit bps
vector 106 IVN_TSN_Network.powerTrainECU.eth[0].phyLayer.outboundEmitter outgoingPacketLengths:vector ETV
attr interpolationmode none
attr recordingmode vector
attr source "packetLength(merge(packetPushedOut, packetPulledOut))"
attr title "outgoing packet lengths"
attr unit b
vector 107 IVN_TSN_Network.powerTrainECU.eth[0].phyLayer.outboundEmitter outgoingDataRate:vector ETV
attr interpolationmode linear
attr recordingmode vector
attr source "throughput(merge(packetPushedOut, packetPulledOut))"
attr title "outgoing data rate"
attr unit bps
vector 108 IVN_TSN_Network.powerTrainECU.eth[0].phyLayer.outboundEmitter flowIncomingPacketLengths:vector ETV
attr interpolationmode none
attr recordingmode vector
attr source "packetLength(demuxFlow(merge(packetPushedIn, packetPulledIn)))"
attr title "flow specific incoming packet lengths"
attr unit b
vector 109 IVN_TSN_Network.powerTrainECU.eth[0].phyLayer.outboundEmitter flowIncomingDataRate:vector ETV
attr interpolationmode linear
attr recordingmode vector
attr source "throughput(demuxFlow(merge(packetPushedIn, packetPulledIn)))"
attr title "flow specific incoming data rate"
attr unit bps
vector 110 IVN_TSN_Network.powerTrainECU.eth[0].phyLayer.outboundEmitter flowOutgoingPacketLengths:vector ETV
attr interpolationmode none
attr recordingmode vector
attr source "packetLength(demuxFlow(merge(packetPushedOut, packetPulledOut)))"
attr title "flow specific outgoing packet lengths"
attr unit b
vector 111 IVN_TSN_Network.powerTrainECU.eth[0].phyLayer.outboundEmitter flowOutgoingDataRate:vector ETV
attr interpolationmode linear
attr recordingmode vector
attr source "throughput(demuxFlow(merge(packetPushedOut, packetPulledOut)))"
attr title "flow specific outgoing data rate"
attr unit bps
vector 112 IVN_TSN_Network.powerTrainECU.eth[0].phyLayer.transmitter transmitting:vector ETV
attr enum IDLE,TRANSMITTING
attr interpolationmode sample-hold
attr recordingmode vector
attr source "count(transmissionStarted) - count(transmissionEnded)"
attr title "transmitting state"
attr type enum
vector 113 IVN_TSN_Network.powerTrainECU.eth[0].phyLayer.transmitter throughput:vector ETV
attr interpolationmode linear
attr recordingmode vector
attr source throughput(transmissionEnded)
attr title throughput
attr unit bps
vector 114 IVN_TSN_Network.powerTrainECU.eth[0].phyLayer.transmitter utilization:vector ETV
attr interpolationmode linear
attr recordingmode vector
attr source "100 * utilization(count(transmissionStarted) - count(transmissionEnded))"
attr title utilization
attr unit %
vector 115 IVN_TSN_Network.powerTrainECU.eth[0].phyLayer.transmitter transmissionTime:vector ETV
attr interpolationmode none
attr recordingmode vector
attr source packetDuration(transmissionEnded)
attr title "transmission time"
attr unit s
vector 116 IVN_TSN_Network.powerTrainECU.eth[0].phyLayer.transmitter flowTransmissionTime:vector ETV
attr interpolationmode none
attr recordingmode vector
attr source packetDuration(demuxFlow(transmissionEnded))
attr title "flow transmission time"
attr unit s
vector 117 IVN_TSN_Network.powerTrainECU.eth[0].phyLayer.phyHeaderChecker incomingPacketLengths:vector ETV
attr interpolationmode none
attr recordingmode vector
attr source "packetLength(merge(packetPushedIn, packetPulledIn))"
attr title "incoming packet lengths"
attr unit b
vector 118 IVN_TSN_Network.powerTrainECU.eth[0].phyLayer.phyHeaderChecker incomingDataRate:vector ETV
attr interpolationmode linear
attr recordingmode vector
attr source "throughput(merge(packetPushedIn, packetPulledIn))"
attr title "incoming data rate"
attr unit bps
vector 119 IVN_TSN_Network.powerTrainECU.eth[0].phyLayer.phyHeaderChecker outgoingPacketLengths:vector ETV
attr interpolationmode none
attr recordingmode vector
attr source "packetLength(merge(packetPushedOut, packetPulledOut))"
attr title "outgoing packet lengths"
attr unit b
vector 120 IVN_TSN_Network.powerTrainECU.eth[0].phyLayer.phyHeaderChecker outgoingDataRate:vector ETV
attr interpolationmode linear
attr recordingmode vector
attr source "throughput(merge(packetPushedOut, packetPulledOut))"
attr title "outgoing data rate"
attr unit bps
vector 121 IVN_TSN_Network.powerTrainECU.eth[0].phyLayer.phyHeaderChecker droppedPacketLengths:vector ETV
attr interpolationmode none
attr recordingmode vector
attr source packetLength(packetDropped)
attr title "dropped packet lengths"
attr unit b
vector 122 IVN_TSN_Network.powerTrainECU.eth[0].phyLayer.phyHeaderChecker droppedDataRate:vector ETV
attr interpolationmode linear
attr recordingmode vector
attr source throughput(packetDropped)
attr title "dropped data rate"
attr unit bps
vector 123 IVN_TSN_Network.powerTrainECU.eth[0].phyLayer.phyHeaderChecker flowIncomingPacketLengths:vector ETV
attr interpolationmode none
attr recordingmode vector
attr source "packetLength(demuxFlow(merge(packetPushedIn, packetPulledIn)))"
attr title "flow specific incoming packet lengths"
attr unit b
vector 124 IVN_TSN_Network.powerTrainECU.eth[0].phyLayer.phyHeaderChecker flowIncomingDataRate:vector ETV
attr interpolationmode linear
attr recordingmode vector
attr source "throughput(demuxFlow(merge(packetPushedIn, packetPulledIn)))"
attr title "flow specific incoming data rate"
attr unit bps
vector 125 IVN_TSN_Network.powerTrainECU.eth[0].phyLayer.phyHeaderChecker flowOutgoingPacketLengths:vector ETV
attr interpolationmode none
attr recordingmode vector
attr source "packetLength(demuxFlow(merge(packetPushedOut, packetPulledOut)))"
attr title "flow specific outgoing packet lengths"
attr unit b
vector 126 IVN_TSN_Network.powerTrainECU.eth[0].phyLayer.phyHeaderChecker flowOutgoingDataRate:vector ETV
attr interpolationmode linear
attr recordingmode vector
attr source "throughput(demuxFlow(merge(packetPushedOut, packetPulledOut)))"
attr title "flow specific outgoing data rate"
attr unit bps
vector 127 IVN_TSN_Network.powerTrainECU.eth[0].phyLayer.phyHeaderChecker flowDroppedPacketLengths:vector ETV
attr interpolationmode none
attr recordingmode vector
attr source packetLength(demuxFlow(packetDropped))
attr title "flow specific dropped packet lengths"
attr unit b
vector 128 IVN_TSN_Network.powerTrainECU.eth[0].phyLayer.phyHeaderChecker flowDroppedDataRate:vector ETV
attr interpolationmode linear
attr recordingmode vector
attr source throughput(demuxFlow(packetDropped))
attr title "flow specific dropped data rate"
attr unit bps
vector 129 IVN_TSN_Network.powerTrainECU.eth[0].phyLayer.inboundEmitter incomingPacketLengths:vector ETV
attr interpolationmode none
attr recordingmode vector
attr source "packetLength(merge(packetPushedIn, packetPulledIn))"
attr title "incoming packet lengths"
attr unit b
vector 130 IVN_TSN_Network.powerTrainECU.eth[0].phyLayer.inboundEmitter incomingDataRate:vector ETV
attr interpolationmode linear
attr recordingmode vector
attr source "throughput(merge(packetPushedIn, packetPulledIn))"
attr title "incoming data rate"
attr unit bps
vector 131 IVN_TSN_Network.powerTrainECU.eth[0].phyLayer.inboundEmitter outgoingPacketLengths:vector ETV
attr interpolationmode none
attr recordingmode vector
attr source "packetLength(merge(packetPushedOut, packetPulledOut))"
attr title "outgoing packet lengths"
attr unit b
vector 132 IVN_TSN_Network.powerTrainECU.eth[0].phyLayer.inboundEmitter outgoingDataRate:vector ETV
attr interpolationmode linear
attr recordingmode vector
attr source "throughput(merge(packetPushedOut, packetPulledOut))"
attr title "outgoing data rate"
attr unit bps
vector 133 IVN_TSN_Network.powerTrainECU.eth[0].phyLayer.inboundEmitter flowIncomingPacketLengths:vector ETV
attr interpolationmode none
attr recordingmode vector
attr source "packetLength(demuxFlow(merge(packetPushedIn, packetPulledIn)))"
attr title "flow specific incoming packet lengths"
attr unit b
vector 134 IVN_TSN_Network.powerTrainECU.eth[0].phyLayer.inboundEmitter flowIncomingDataRate:vector ETV
attr interpolationmode linear
attr recordingmode vector
attr source "throughput(demuxFlow(merge(packetPushedIn, packetPulledIn)))"
attr title "flow specific incoming data rate"
attr unit bps
vector 135 IVN_TSN_Network.powerTrainECU.eth[0].phyLayer.inboundEmitter flowOutgoingPacketLengths:vector ETV
attr interpolationmode none
attr recordingmode vector
attr source "packetLength(demuxFlow(merge(packetPushedOut, packetPulledOut)))"
attr title "flow specific outgoing packet lengths"
attr unit b
vector 136 IVN_TSN_Network.powerTrainECU.eth[0].phyLayer.inboundEmitter flowOutgoingDataRate:vector ETV
attr interpolationmode linear
attr recordingmode vector
attr source "throughput(demuxFlow(merge(packetPushedOut, packetPulledOut)))"
attr title "flow specific outgoing data rate"
attr unit bps
vector 137 IVN_TSN_Network.powerTrainECU.eth[0].phyLayer.receiver throughput:vector ETV
attr interpolationmode linear
attr recordingmode vector
attr source throughput(receptionEnded)
attr title throughput
attr unit bps
vector 138 IVN_TSN_Network.powerTrainECU.eth[0].phyLayer.receiver receptionTime:vector ETV
attr interpolationmode none
attr recordingmode vector
attr source packetDuration(receptionEnded)
attr title "reception time"
attr unit s
vector 139 IVN_TSN_Network.powerTrainECU.eth[0].phyLayer.receiver flowReceptionTime:vector ETV
attr interpolationmode none
attr recordingmode vector
attr source packetDuration(demuxFlow(receptionEnded))
attr title "flow reception time"
attr unit s
vector 140 IVN_TSN_Network.powerTrainECU.eth[0] packetDropInterfaceDown:vector(packetBytes) ETV
attr interpolationmode none
attr recordingmode vector(packetBytes)
attr source packetDropReasonIsInterfaceDown(packetDropped)
attr title "packet drops: interface down, packetBytes"
vector 141 IVN_TSN_Network.powerTrainECU.eth[0] packetDropNoCarrier:vector(packetBytes) ETV
attr interpolationmode none
attr recordingmode vector(packetBytes)
attr source packetDropReasonIsNoCarrier(packetDropped)
attr title "packet drops: no carrier, packetBytes"
vector 142 IVN_TSN_Network.powerTrainECU.ipv4.ip packetDropAddressResolutionFailed:vector(packetBytes) ETV
attr interpolationmode none
attr recordingmode vector(packetBytes)
attr source packetDropReasonIsAddressResolutionFailed(packetDropped)
attr title "packet drop: address resolution failed, packetBytes"
vector 143 IVN_TSN_Network.powerTrainECU.ipv4.ip packetDropHopLimitReached:vector(packetBytes) ETV
attr interpolationmode none
attr recordingmode vector(packetBytes)
attr source packetDropReasonIsHopLimitReached(packetDropped)
attr title "packet drop: hop limit reached, packetBytes"
vector 144 IVN_TSN_Network.powerTrainECU.ipv4.ip packetDropForwardingDisabled:vector(packetBytes) ETV
attr interpolationmode none
attr recordingmode vector(packetBytes)
attr source packetDropReasonIsForwardingDisabled(packetDropped)
attr title "packet drop: forwarding disabled, packetBytes"
vector 145 IVN_TSN_Network.powerTrainECU.ipv4.ip packetDropLifetimeExpired:vector(packetBytes) ETV
attr interpolationmode none
attr recordingmode vector(packetBytes)
attr source packetDropReasonIsLifetimeExpired(packetDropped)
attr title "packet drop: lifetime expired, packetBytes"
vector 146 IVN_TSN_Network.powerTrainECU.ipv4.ip packetDropNoInterfaceFound:vector(packetBytes) ETV
attr interpolationmode none
attr recordingmode vector(packetBytes)
attr source packetDropReasonIsNoInterfaceFound(packetDropped)
attr title "packet drop: no interface found, packetBytes"
vector 147 IVN_TSN_Network.powerTrainECU.ipv4.ip packetDropNoRouteFound:vector(packetBytes) ETV
attr interpolationmode none
attr recordingmode vector(packetBytes)
attr source packetDropReasonIsNoRouteFound(packetDropped)
attr title "packet drop: no route found, packetBytes"
vector 148 IVN_TSN_Network.powerTrainECU.ipv4.ip packetDropUndefined:vector(packetBytes) ETV
attr interpolationmode none
attr recordingmode vector(packetBytes)
attr source packetDropReasonIsUndefined(packetDropped)
attr title "packet drop: undefined, packetBytes"
vector 149 IVN_TSN_Network.powerTrainECU.udp packetSent:vector(packetBytes) ETV
attr interpolationmode none
attr recordingmode vector(packetBytes)
attr source packetSent
attr title "packets sent, packetBytes"
vector 150 IVN_TSN_Network.powerTrainECU.udp packetReceived:vector(packetBytes) ETV
attr interpolationmode none
attr recordingmode vector(packetBytes)
attr source packetReceived
attr title "packets received, packetBytes"
vector 151 IVN_TSN_Network.powerTrainECU.udp passedUpPk:vector(count) ETV
attr interpolationmode none
attr recordingmode vector(count)
attr source packetSentToUpper
attr title "packets passed up, count"
vector 152 IVN_TSN_Network.powerTrainECU.udp droppedPkWrongPort:vector(count) ETV
attr interpolationmode none
attr recordingmode vector(count)
attr source packetDropReasonIsNoPortFound(packetDropped)
attr title "packets dropped (wrong port), count"
vector 153 IVN_TSN_Network.powerTrainECU.udp droppedPkBadChecksum:vector(count) ETV
attr interpolationmode none
attr recordingmode vector(count)
attr source packetDropReasonIsIncorrectlyReceived(packetDropped)
attr title "packets dropped (checksum error), count"
vector 154 IVN_TSN_Network.powerTrainECU.app[0].sink droppedPacketLengths:vector ETV
attr interpolationmode none
attr recordingmode vector
attr source packetLength(packetDropped)
attr title "dropped packet lengths"
attr unit b
vector 155 IVN_TSN_Network.powerTrainECU.app[0].sink droppedDataRate:vector ETV
attr interpolationmode linear
attr recordingmode vector
attr source throughput(packetDropped)
attr title "dropped data rate"
attr unit bps
vector 156 IVN_TSN_Network.powerTrainECU.app[0].sink packetLengths:vector ETV
attr interpolationmode none
attr recordingmode vector
attr source packetLength(packetPushed)
attr title "packet lengths"
attr unit b
vector 157 IVN_TSN_Network.powerTrainECU.app[0].sink dataRate:vector ETV
attr interpolationmode linear
attr recordingmode vector
attr source throughput(packetPushed)
attr title "data rate"
attr unit bps
vector 158 IVN_TSN_Network.powerTrainECU.app[0].sink meanBitLifeTimePerPacket:vector ETV
attr interpolationmode none
attr recordingmode vector
attr source weightedMeanPerGroup(groupRegionsPerPacket(lifeTimePerRegion(packetPushed)))
attr title "mean bit life time per packet"
attr unit s
vector 159 IVN_TSN_Network.powerTrainECU.app[0].sink packetLifeTime:vector ETV
attr interpolationmode none
attr recordingmode vector
attr source packetLifeTime(packetPushed)
attr title "packet life time"
attr unit s
vector 160 IVN_TSN_Network.powerTrainECU.app[0].sink packetJitter:vector ETV
attr interpolationmode none
attr recordingmode vector
attr source jitter(weightedMeanPerGroup(groupRegionsPerPacket(lifeTimePerRegion(packetPushed))))
attr title "packet jitter"
attr unit s
vector 161 IVN_TSN_Network.powerTrainECU.app[0].sink packetDelayDifferenceToMean:vector ETV
attr interpolationmode none
attr recordingmode vector
attr source differenceToMean(weightedMeanPerGroup(groupRegionsPerPacket(lifeTimePerRegion(packetPushed))))
attr title "packet delay difference to mean"
attr unit s
vector 162 IVN_TSN_Network.powerTrainECU.app[0].sink packetDelayVariation:vector ETV
attr recordingmode vector
attr source stddev(weightedMeanPerGroup(groupRegionsPerPacket(lifeTimePerRegion(packetPushed))))
attr title "packet delay variation"
attr unit s
vector 163 IVN_TSN_Network.powerTrainECU.app[0].io packetSent:vector(packetBytes) ETV
attr interpolationmode none
attr recordingmode vector(packetBytes)
attr source packetSent
attr title "packets sent, packetBytes"
vector 164 IVN_TSN_Network.powerTrainECU.app[0].io packetReceived:vector(packetBytes) ETV
attr interpolationmode none
attr recordingmode vector(packetBytes)
attr source packetReceived
attr title "packets received, packetBytes"
vector 165 IVN_TSN_Network.usbMediaECU.bridging.directionReverser.reverser incomingPacketLengths:vector ETV
attr interpolationmode none
attr recordingmode vector
attr source "packetLength(merge(packetPushedIn, packetPulledIn))"
attr title "incoming packet lengths"
attr unit b
vector 166 IVN_TSN_Network.usbMediaECU.bridging.directionReverser.reverser incomingDataRate:vector ETV
attr interpolationmode linear
attr recordingmode vector
attr source "throughput(merge(packetPushedIn, packetPulledIn))"
attr title "incoming data rate"
attr unit bps
vector 167 IVN_TSN_Network.usbMediaECU.bridging.directionReverser.reverser outgoingPacketLengths:vector ETV
attr interpolationmode none
attr recordingmode vector
attr source "packetLength(merge(packetPushedOut, packetPulledOut))"
attr title "outgoing packet lengths"
attr unit b
vector 168 IVN_TSN_Network.usbMediaECU.bridging.directionReverser.reverser outgoingDataRate:vector ETV
attr interpolationmode linear
attr recordingmode vector
attr source "throughput(merge(packetPushedOut, packetPulledOut))"
attr title "outgoing data rate"
attr unit bps
vector 169 IVN_TSN_Network.usbMediaECU.bridging.directionReverser.reverser flowIncomingPacketLengths:vector ETV
attr interpolationmode none
attr recordingmode vector
attr source "packetLength(demuxFlow(merge(packetPushedIn, packetPulledIn)))"
attr title "flow specific incoming packet lengths"
attr unit b
vector 170 IVN_TSN_Network.usbMediaECU.bridging.directionReverser.reverser flowIncomingDataRate:vector ETV
attr interpolationmode linear
attr recordingmode vector
attr source "throughput(demuxFlow(merge(packetPushedIn, packetPulledIn)))"
attr title "flow specific incoming data rate"
attr unit bps
vector 171 IVN_TSN_Network.usbMediaECU.bridging.directionReverser.reverser flowOutgoingPacketLengths:vector ETV
attr interpolationmode none
attr recordingmode vector
attr source "packetLength(demuxFlow(merge(packetPushedOut, packetPulledOut)))"
attr title "flow specific outgoing packet lengths"
attr unit b
vector 172 IVN_TSN_Network.usbMediaECU.bridging.directionReverser.reverser flowOutgoingDataRate:vector ETV
attr interpolationmode linear
attr recordingmode vector
attr source "throughput(demuxFlow(merge(packetPushedOut, packetPulledOut)))"
attr title "flow specific outgoing data rate"
attr unit bps
vector 173 IVN_TSN_Network.usbMediaECU.bridging.directionReverser.join packetLengths:vector ETV
attr interpolationmode none
attr recordingmode vector
attr source "packetLength(merge(packetPushed, packetPulled))"
attr title "packet lengths"
attr unit b
vector 174 IVN_TSN_Network.usbMediaECU.bridging.directionReverser.join dataRate:vector ETV
attr interpolationmode linear
attr recordingmode vector
attr source "throughput(merge(packetPushed, packetPulled))"
attr title "data rate"
attr unit bps
vector 175 IVN_TSN_Network.usbMediaECU.bridging.streamIdentifier.identifier incomingPacketLengths:vector ETV
attr interpolationmode none
attr recordingmode vector
attr source "packetLength(merge(packetPushedIn, packetPulledIn))"
attr title "incoming packet lengths"
attr unit b
vector 176 IVN_TSN_Network.usbMediaECU.bridging.streamIdentifier.identifier incomingDataRate:vector ETV
attr interpolationmode linear
attr recordingmode vector
attr source "throughput(merge(packetPushedIn, packetPulledIn))"
attr title "incoming data rate"
attr unit bps
vector 177 IVN_TSN_Network.usbMediaECU.bridging.streamIdentifier.identifier outgoingPacketLengths:vector ETV
attr interpolationmode none
attr recordingmode vector
attr source "packetLength(merge(packetPushedOut, packetPulledOut))"
attr title "outgoing packet lengths"
attr unit b
vector 178 IVN_TSN_Network.usbMediaECU.bridging.streamIdentifier.identifier outgoingDataRate:vector ETV
attr interpolationmode linear
attr recordingmode vector
attr source "throughput(merge(packetPushedOut, packetPulledOut))"
attr title "outgoing data rate"
attr unit bps
vector 179 IVN_TSN_Network.usbMediaECU.bridging.streamIdentifier.identifier flowIncomingPacketLengths:vector ETV
attr interpolationmode none
attr recordingmode vector
attr source "packetLength(demuxFlow(merge(packetPushedIn, packetPulledIn)))"
attr title "flow specific incoming packet lengths"
attr unit b
vector 180 IVN_TSN_Network.usbMediaECU.bridging.streamIdentifier.identifier flowIncomingDataRate:vector ETV
attr interpolationmode linear
attr recordingmode vector
attr source "throughput(demuxFlow(merge(packetPushedIn, packetPulledIn)))"
attr title "flow specific incoming data rate"
attr unit bps
vector 181 IVN_TSN_Network.usbMediaECU.bridging.streamIdentifier.identifier flowOutgoingPacketLengths:vector ETV
attr interpolationmode none
attr recordingmode vector
attr source "packetLength(demuxFlow(merge(packetPushedOut, packetPulledOut)))"
attr title "flow specific outgoing packet lengths"
attr unit b
vector 182 IVN_TSN_Network.usbMediaECU.bridging.streamIdentifier.identifier flowOutgoingDataRate:vector ETV
attr interpolationmode linear
attr recordingmode vector
attr source "throughput(demuxFlow(merge(packetPushedOut, packetPulledOut)))"
attr title "flow specific outgoing data rate"
attr unit bps
vector 183 IVN_TSN_Network.usbMediaECU.bridging.streamCoder.decoder incomingPacketLengths:vector ETV
attr interpolationmode none
attr recordingmode vector
attr source "packetLength(merge(packetPushedIn, packetPulledIn))"
attr title "incoming packet lengths"
attr unit b
vector 184 IVN_TSN_Network.usbMediaECU.bridging.streamCoder.decoder incomingDataRate:vector ETV
attr interpolationmode linear
attr recordingmode vector
attr source "throughput(merge(packetPushedIn, packetPulledIn))"
attr title "incoming data rate"
attr unit bps
vector 185 IVN_TSN_Network.usbMediaECU.bridging.streamCoder.decoder outgoingPacketLengths:vector ETV
attr interpolationmode none
attr recordingmode vector
attr source "packetLength(merge(packetPushedOut, packetPulledOut))"
attr title "outgoing packet lengths"
attr unit b
vector 186 IVN_TSN_Network.usbMediaECU.bridging.streamCoder.decoder outgoingDataRate:vector ETV
attr interpolationmode linear
attr recordingmode vector
attr source "throughput(merge(packetPushedOut, packetPulledOut))"
attr title "outgoing data rate"
attr unit bps
vector 187 IVN_TSN_Network.usbMediaECU.bridging.streamCoder.decoder flowIncomingPacketLengths:vector ETV
attr interpolationmode none
attr recordingmode vector
attr source "packetLength(demuxFlow(merge(packetPushedIn, packetPulledIn)))"
attr title "flow specific incoming packet lengths"
attr unit b
vector 188 IVN_TSN_Network.usbMediaECU.bridging.streamCoder.decoder flowIncomingDataRate:vector ETV
attr interpolationmode linear
attr recordingmode vector
attr source "throughput(demuxFlow(merge(packetPushedIn, packetPulledIn)))"
attr title "flow specific incoming data rate"
attr unit bps
vector 189 IVN_TSN_Network.usbMediaECU.bridging.streamCoder.decoder flowOutgoingPacketLengths:vector ETV
attr interpolationmode none
attr recordingmode vector
attr source "packetLength(demuxFlow(merge(packetPushedOut, packetPulledOut)))"
attr title "flow specific outgoing packet lengths"
attr unit b
vector 190 IVN_TSN_Network.usbMediaECU.bridging.streamCoder.decoder flowOutgoingDataRate:vector ETV
attr interpolationmode linear
attr recordingmode vector
attr source "throughput(demuxFlow(merge(packetPushedOut, packetPulledOut)))"
attr title "flow specific outgoing data rate"
attr unit bps
vector 191 IVN_TSN_Network.usbMediaECU.bridging.streamCoder.encoder incomingPacketLengths:vector ETV
attr interpolationmode none
attr recordingmode vector
attr source "packetLength(merge(packetPushedIn, packetPulledIn))"
attr title "incoming packet lengths"
attr unit b
vector 192 IVN_TSN_Network.usbMediaECU.bridging.streamCoder.encoder incomingDataRate:vector ETV
attr interpolationmode linear
attr recordingmode vector
attr source "throughput(merge(packetPushedIn, packetPulledIn))"
attr title "incoming data rate"
attr unit bps
vector 193 IVN_TSN_Network.usbMediaECU.bridging.streamCoder.encoder outgoingPacketLengths:vector ETV
attr interpolationmode none
attr recordingmode vector
attr source "packetLength(merge(packetPushedOut, packetPulledOut))"
attr title "outgoing packet lengths"
attr unit b
vector 194 IVN_TSN_Network.usbMediaECU.bridging.streamCoder.encoder outgoingDataRate:vector ETV
attr interpolationmode linear
attr recordingmode vector
attr source "throughput(merge(packetPushedOut, packetPulledOut))"
attr title "outgoing data rate"
attr unit bps
vector 195 IVN_TSN_Network.usbMediaECU.bridging.streamCoder.encoder flowIncomingPacketLengths:vector ETV
attr interpolationmode none
attr recordingmode vector
attr source "packetLength(demuxFlow(merge(packetPushedIn, packetPulledIn)))"
attr title "flow specific incoming packet lengths"
attr unit b
vector 196 IVN_TSN_Network.usbMediaECU.bridging.streamCoder.encoder flowIncomingDataRate:vector ETV
attr interpolationmode linear
attr recordingmode vector
attr source "throughput(demuxFlow(merge(packetPushedIn, packetPulledIn)))"
attr title "flow specific incoming data rate"
attr unit bps
vector 197 IVN_TSN_Network.usbMediaECU.bridging.streamCoder.encoder flowOutgoingPacketLengths:vector ETV
attr interpolationmode none
attr recordingmode vector
attr source "packetLength(demuxFlow(merge(packetPushedOut, packetPulledOut)))"
attr title "flow specific outgoing packet lengths"
attr unit b
vector 198 IVN_TSN_Network.usbMediaECU.bridging.streamCoder.encoder flowOutgoingDataRate:vector ETV
attr interpolationmode linear
attr recordingmode vector
attr source "throughput(demuxFlow(merge(packetPushedOut, packetPulledOut)))"
attr title "flow specific outgoing data rate"
attr unit bps
vector 199 IVN_TSN_Network.usbMediaECU.ethernet.macHeaderInserter incomingPacketLengths:vector ETV
attr interpolationmode none
attr recordingmode vector
attr source "packetLength(merge(packetPushedIn, packetPulledIn))"
attr title "incoming packet lengths"
attr unit b
vector 200 IVN_TSN_Network.usbMediaECU.ethernet.macHeaderInserter incomingDataRate:vector ETV
attr interpolationmode linear
attr recordingmode vector
attr source "throughput(merge(packetPushedIn, packetPulledIn))"
attr title "incoming data rate"
attr unit bps
vector 201 IVN_TSN_Network.usbMediaECU.ethernet.macHeaderInserter outgoingPacketLengths:vector ETV
attr interpolationmode none
attr recordingmode vector
attr source "packetLength(merge(packetPushedOut, packetPulledOut))"
attr title "outgoing packet lengths"
attr unit b
vector 202 IVN_TSN_Network.usbMediaECU.ethernet.macHeaderInserter outgoingDataRate:vector ETV
attr interpolationmode linear
attr recordingmode vector
attr source "throughput(merge(packetPushedOut, packetPulledOut))"
attr title "outgoing data rate"
attr unit bps
vector 203 IVN_TSN_Network.usbMediaECU.ethernet.macHeaderInserter flowIncomingPacketLengths:vector ETV
attr interpolationmode none
attr recordingmode vector
attr source "packetLength(demuxFlow(merge(packetPushedIn, packetPulledIn)))"
attr title "flow specific incoming packet lengths"
attr unit b
vector 204 IVN_TSN_Network.usbMediaECU.ethernet.macHeaderInserter flowIncomingDataRate:vector ETV
attr interpolationmode linear
attr recordingmode vector
attr source "throughput(demuxFlow(merge(packetPushedIn, packetPulledIn)))"
attr title "flow specific incoming data rate"
attr unit bps
vector 205 IVN_TSN_Network.usbMediaECU.ethernet.macHeaderInserter flowOutgoingPacketLengths:vector ETV
attr interpolationmode none
attr recordingmode vector
attr source "packetLength(demuxFlow(merge(packetPushedOut, packetPulledOut)))"
attr title "flow specific outgoing packet lengths"
attr unit b
vector 206 IVN_TSN_Network.usbMediaECU.ethernet.macHeaderInserter flowOutgoingDataRate:vector ETV
attr interpolationmode linear
attr recordingmode vector
attr source "throughput(demuxFlow(merge(packetPushedOut, packetPulledOut)))"
attr title "flow specific outgoing data rate"
attr unit bps
vector 207 IVN_TSN_Network.usbMediaECU.ethernet.paddingInserter incomingPacketLengths:vector ETV
attr interpolationmode none
attr recordingmode vector
attr source "packetLength(merge(packetPushedIn, packetPulledIn))"
attr title "incoming packet lengths"
attr unit b
vector 208 IVN_TSN_Network.usbMediaECU.ethernet.paddingInserter incomingDataRate:vector ETV
attr interpolationmode linear
attr recordingmode vector
attr source "throughput(merge(packetPushedIn, packetPulledIn))"
attr title "incoming data rate"
attr unit bps
vector 209 IVN_TSN_Network.usbMediaECU.ethernet.paddingInserter outgoingPacketLengths:vector ETV
attr interpolationmode none
attr recordingmode vector
attr source "packetLength(merge(packetPushedOut, packetPulledOut))"
attr title "outgoing packet lengths"
attr unit b
vector 210 IVN_TSN_Network.usbMediaECU.ethernet.paddingInserter outgoingDataRate:vector ETV
attr interpolationmode linear
attr recordingmode vector
attr source "throughput(merge(packetPushedOut, packetPulledOut))"
attr title "outgoing data rate"
attr unit bps
vector 211 IVN_TSN_Network.usbMediaECU.ethernet.paddingInserter flowIncomingPacketLengths:vector ETV
attr interpolationmode none
attr recordingmode vector
attr source "packetLength(demuxFlow(merge(packetPushedIn, packetPulledIn)))"
attr title "flow specific incoming packet lengths"
attr unit b
vector 212 IVN_TSN_Network.usbMediaECU.ethernet.paddingInserter flowIncomingDataRate:vector ETV
attr interpolationmode linear
attr recordingmode vector
attr source "throughput(demuxFlow(merge(packetPushedIn, packetPulledIn)))"
attr title "flow specific incoming data rate"
attr unit bps
vector 213 IVN_TSN_Network.usbMediaECU.ethernet.paddingInserter flowOutgoingPacketLengths:vector ETV
attr interpolationmode none
attr recordingmode vector
attr source "packetLength(demuxFlow(merge(packetPushedOut, packetPulledOut)))"
attr title "flow specific outgoing packet lengths"
attr unit b
vector 214 IVN_TSN_Network.usbMediaECU.ethernet.paddingInserter flowOutgoingDataRate:vector ETV
attr interpolationmode linear
attr recordingmode vector
attr source "throughput(demuxFlow(merge(packetPushedOut, packetPulledOut)))"
attr title "flow specific outgoing data rate"
attr unit bps
vector 215 IVN_TSN_Network.usbMediaECU.ethernet.fcsInserter incomingPacketLengths:vector ETV
attr interpolationmode none
attr recordingmode vector
attr source "packetLength(merge(packetPushedIn, packetPulledIn))"
attr title "incoming packet lengths"
attr unit b
vector 216 IVN_TSN_Network.usbMediaECU.ethernet.fcsInserter incomingDataRate:vector ETV
attr interpolationmode linear
attr recordingmode vector
attr source "throughput(merge(packetPushedIn, packetPulledIn))"
attr title "incoming data rate"
attr unit bps
vector 217 IVN_TSN_Network.usbMediaECU.ethernet.fcsInserter outgoingPacketLengths:vector ETV
attr interpolationmode none
attr recordingmode vector
attr source "packetLength(merge(packetPushedOut, packetPulledOut))"
attr title "outgoing packet lengths"
attr unit b
vector 218 IVN_TSN_Network.usbMediaECU.ethernet.fcsInserter outgoingDataRate:vector ETV
attr interpolationmode linear
attr recordingmode vector
attr source "throughput(merge(packetPushedOut, packetPulledOut))"
attr title "outgoing data rate"
attr unit bps
vector 219 IVN_TSN_Network.usbMediaECU.ethernet.fcsInserter flowIncomingPacketLengths:vector ETV
attr interpolationmode none
attr recordingmode vector
attr source "packetLength(demuxFlow(merge(packetPushedIn, packetPulledIn)))"
attr title "flow specific incoming packet lengths"
attr unit b
vector 220 IVN_TSN_Network.usbMediaECU.ethernet.fcsInserter flowIncomingDataRate:vector ETV
attr interpolationmode linear
attr recordingmode vector
attr source "throughput(demuxFlow(merge(packetPushedIn, packetPulledIn)))"
attr title "flow specific incoming data rate"
attr unit bps
vector 221 IVN_TSN_Network.usbMediaECU.ethernet.fcsInserter flowOutgoingPacketLengths:vector ETV
attr interpolationmode none
attr recordingmode vector
attr source "packetLength(demuxFlow(merge(packetPushedOut, packetPulledOut)))"
attr title "flow specific outgoing packet lengths"
attr unit b
vector 222 IVN_TSN_Network.usbMediaECU.ethernet.fcsInserter flowOutgoingDataRate:vector ETV
attr interpolationmode linear
attr recordingmode vector
attr source "throughput(demuxFlow(merge(packetPushedOut, packetPulledOut)))"
attr title "flow specific outgoing data rate"
attr unit bps
vector 223 IVN_TSN_Network.usbMediaECU.ethernet.macHeaderChecker incomingPacketLengths:vector ETV
attr interpolationmode none
attr recordingmode vector
attr source "packetLength(merge(packetPushedIn, packetPulledIn))"
attr title "incoming packet lengths"
attr unit b
vector 224 IVN_TSN_Network.usbMediaECU.ethernet.macHeaderChecker incomingDataRate:vector ETV
attr interpolationmode linear
attr recordingmode vector
attr source "throughput(merge(packetPushedIn, packetPulledIn))"
attr title "incoming data rate"
attr unit bps
vector 225 IVN_TSN_Network.usbMediaECU.ethernet.macHeaderChecker outgoingPacketLengths:vector ETV
attr interpolationmode none
attr recordingmode vector
attr source "packetLength(merge(packetPushedOut, packetPulledOut))"
attr title "outgoing packet lengths"
attr unit b
vector 226 IVN_TSN_Network.usbMediaECU.ethernet.macHeaderChecker outgoingDataRate:vector ETV
attr interpolationmode linear
attr recordingmode vector
attr source "throughput(merge(packetPushedOut, packetPulledOut))"
attr title "outgoing data rate"
attr unit bps
vector 227 IVN_TSN_Network.usbMediaECU.ethernet.macHeaderChecker droppedPacketLengths:vector ETV
attr interpolationmode none
attr recordingmode vector
attr source packetLength(packetDropped)
attr title "dropped packet lengths"
attr unit b
vector 228 IVN_TSN_Network.usbMediaECU.ethernet.macHeaderChecker droppedDataRate:vector ETV
attr interpolationmode linear
attr recordingmode vector
attr source throughput(packetDropped)
attr title "dropped data rate"
attr unit bps
vector 229 IVN_TSN_Network.usbMediaECU.ethernet.macHeaderChecker flowIncomingPacketLengths:vector ETV
attr interpolationmode none
attr recordingmode vector
attr source "packetLength(demuxFlow(merge(packetPushedIn, packetPulledIn)))"
attr title "flow specific incoming packet lengths"
attr unit b
vector 230 IVN_TSN_Network.usbMediaECU.ethernet.macHeaderChecker flowIncomingDataRate:vector ETV
attr interpolationmode linear
attr recordingmode vector
attr source "throughput(demuxFlow(merge(packetPushedIn, packetPulledIn)))"
attr title "flow specific incoming data rate"
attr unit bps
vector 231 IVN_TSN_Network.usbMediaECU.ethernet.macHeaderChecker flowOutgoingPacketLengths:vector ETV
attr interpolationmode none
attr recordingmode vector
attr source "packetLength(demuxFlow(merge(packetPushedOut, packetPulledOut)))"
attr title "flow specific outgoing packet lengths"
attr unit b
vector 232 IVN_TSN_Network.usbMediaECU.ethernet.macHeaderChecker flowOutgoingDataRate:vector ETV
attr interpolationmode linear
attr recordingmode vector
attr source "throughput(demuxFlow(merge(packetPushedOut, packetPulledOut)))"
attr title "flow specific outgoing data rate"
attr unit bps
vector 233 IVN_TSN_Network.usbMediaECU.ethernet.macHeaderChecker flowDroppedPacketLengths:vector ETV
attr interpolationmode none
attr recordingmode vector
attr source packetLength(demuxFlow(packetDropped))
attr title "flow specific dropped packet lengths"
attr unit b
vector 234 IVN_TSN_Network.usbMediaECU.ethernet.macHeaderChecker flowDroppedDataRate:vector ETV
attr interpolationmode linear
attr recordingmode vector
attr source throughput(demuxFlow(packetDropped))
attr title "flow specific dropped data rate"
attr unit bps
vector 235 IVN_TSN_Network.usbMediaECU.ethernet.fcsChecker incomingPacketLengths:vector ETV
attr interpolationmode none
attr recordingmode vector
attr source "packetLength(merge(packetPushedIn, packetPulledIn))"
attr title "incoming packet lengths"
attr unit b
vector 236 IVN_TSN_Network.usbMediaECU.ethernet.fcsChecker incomingDataRate:vector ETV
attr interpolationmode linear
attr recordingmode vector
attr source "throughput(merge(packetPushedIn, packetPulledIn))"
attr title "incoming data rate"
attr unit bps
vector 237 IVN_TSN_Network.usbMediaECU.ethernet.fcsChecker outgoingPacketLengths:vector ETV
attr interpolationmode none
attr recordingmode vector
attr source "packetLength(merge(packetPushedOut, packetPulledOut))"
attr title "outgoing packet lengths"
attr unit b
vector 238 IVN_TSN_Network.usbMediaECU.ethernet.fcsChecker outgoingDataRate:vector ETV
attr interpolationmode linear
attr recordingmode vector
attr source "throughput(merge(packetPushedOut, packetPulledOut))"
attr title "outgoing data rate"
attr unit bps
vector 239 IVN_TSN_Network.usbMediaECU.ethernet.fcsChecker droppedPacketLengths:vector ETV
attr interpolationmode none
attr recordingmode vector
attr source packetLength(packetDropped)
attr title "dropped packet lengths"
attr unit b
vector 240 IVN_TSN_Network.usbMediaECU.ethernet.fcsChecker droppedDataRate:vector ETV
attr interpolationmode linear
attr recordingmode vector
attr source throughput(packetDropped)
attr title "dropped data rate"
attr unit bps
vector 241 IVN_TSN_Network.usbMediaECU.ethernet.fcsChecker flowIncomingPacketLengths:vector ETV
attr interpolationmode none
attr recordingmode vector
attr source "packetLength(demuxFlow(merge(packetPushedIn, packetPulledIn)))"
attr title "flow specific incoming packet lengths"
attr unit b
vector 242 IVN_TSN_Network.usbMediaECU.ethernet.fcsChecker flowIncomingDataRate:vector ETV
attr interpolationmode linear
attr recordingmode vector
attr source "throughput(demuxFlow(merge(packetPushedIn, packetPulledIn)))"
attr title "flow specific incoming data rate"
attr unit bps
vector 243 IVN_TSN_Network.usbMediaECU.ethernet.fcsChecker flowOutgoingPacketLengths:vector ETV
attr interpolationmode none
attr recordingmode vector
attr source "packetLength(demuxFlow(merge(packetPushedOut, packetPulledOut)))"
attr title "flow specific outgoing packet lengths"
attr unit b
vector 244 IVN_TSN_Network.usbMediaECU.ethernet.fcsChecker flowOutgoingDataRate:vector ETV
attr interpolationmode linear
attr recordingmode vector
attr source "throughput(demuxFlow(merge(packetPushedOut, packetPulledOut)))"
attr title "flow specific outgoing data rate"
attr unit bps
vector 245 IVN_TSN_Network.usbMediaECU.ethernet.fcsChecker flowDroppedPacketLengths:vector ETV
attr interpolationmode none
attr recordingmode vector
attr source packetLength(demuxFlow(packetDropped))
attr title "flow specific dropped packet lengths"
attr unit b
vector 246 IVN_TSN_Network.usbMediaECU.ethernet.fcsChecker flowDroppedDataRate:vector ETV
attr interpolationmode linear
attr recordingmode vector
attr source throughput(demuxFlow(packetDropped))
attr title "flow specific dropped data rate"
attr unit bps
vector 247 IVN_TSN_Network.usbMediaECU.ieee8021q.qTagHeaderInserter incomingPacketLengths:vector ETV
attr interpolationmode none
attr recordingmode vector
attr source "packetLength(merge(packetPushedIn, packetPulledIn))"
attr title "incoming packet lengths"
attr unit b
vector 248 IVN_TSN_Network.usbMediaECU.ieee8021q.qTagHeaderInserter incomingDataRate:vector ETV
attr interpolationmode linear
attr recordingmode vector
attr source "throughput(merge(packetPushedIn, packetPulledIn))"
attr title "incoming data rate"
attr unit bps
vector 249 IVN_TSN_Network.usbMediaECU.ieee8021q.qTagHeaderInserter outgoingPacketLengths:vector ETV
attr interpolationmode none
attr recordingmode vector
attr source "packetLength(merge(packetPushedOut, packetPulledOut))"
attr title "outgoing packet lengths"
attr unit b
vector 250 IVN_TSN_Network.usbMediaECU.ieee8021q.qTagHeaderInserter outgoingDataRate:vector ETV
attr interpolationmode linear
attr recordingmode vector
attr source "throughput(merge(packetPushedOut, packetPulledOut))"
attr title "outgoing data rate"
attr unit bps
vector 251 IVN_TSN_Network.usbMediaECU.ieee8021q.qTagHeaderInserter flowIncomingPacketLengths:vector ETV
attr interpolationmode none
attr recordingmode vector
attr source "packetLength(demuxFlow(merge(packetPushedIn, packetPulledIn)))"
attr title "flow specific incoming packet lengths"
attr unit b
vector 252 IVN_TSN_Network.usbMediaECU.ieee8021q.qTagHeaderInserter flowIncomingDataRate:vector ETV
attr interpolationmode linear
attr recordingmode vector
attr source "throughput(demuxFlow(merge(packetPushedIn, packetPulledIn)))"
attr title "flow specific incoming data rate"
attr unit bps
vector 253 IVN_TSN_Network.usbMediaECU.ieee8021q.qTagHeaderInserter flowOutgoingPacketLengths:vector ETV
attr interpolationmode none
attr recordingmode vector
attr source "packetLength(demuxFlow(merge(packetPushedOut, packetPulledOut)))"
attr title "flow specific outgoing packet lengths"
attr unit b
vector 254 IVN_TSN_Network.usbMediaECU.ieee8021q.qTagHeaderInserter flowOutgoingDataRate:vector ETV
attr interpolationmode linear
attr recordingmode vector
attr source "throughput(demuxFlow(merge(packetPushedOut, packetPulledOut)))"
attr title "flow specific outgoing data rate"
attr unit bps
vector 255 IVN_TSN_Network.usbMediaECU.ieee8021q.qTagHeaderChecker incomingPacketLengths:vector ETV
attr interpolationmode none
attr recordingmode vector
attr source "packetLength(merge(packetPushedIn, packetPulledIn))"
attr title "incoming packet lengths"
attr unit b
vector 256 IVN_TSN_Network.usbMediaECU.ieee8021q.qTagHeaderChecker incomingDataRate:vector ETV
attr interpolationmode linear
attr recordingmode vector
attr source "throughput(merge(packetPushedIn, packetPulledIn))"
attr title "incoming data rate"
attr unit bps
vector 257 IVN_TSN_Network.usbMediaECU.ieee8021q.qTagHeaderChecker outgoingPacketLengths:vector ETV
attr interpolationmode none
attr recordingmode vector
attr source "packetLength(merge(packetPushedOut, packetPulledOut))"
attr title "outgoing packet lengths"
attr unit b
vector 258 IVN_TSN_Network.usbMediaECU.ieee8021q.qTagHeaderChecker outgoingDataRate:vector ETV
attr interpolationmode linear
attr recordingmode vector
attr source "throughput(merge(packetPushedOut, packetPulledOut))"
attr title "outgoing data rate"
attr unit bps
vector 259 IVN_TSN_Network.usbMediaECU.ieee8021q.qTagHeaderChecker droppedPacketLengths:vector ETV
attr interpolationmode none
attr recordingmode vector
attr source packetLength(packetDropped)
attr title "dropped packet lengths"
attr unit b
vector 260 IVN_TSN_Network.usbMediaECU.ieee8021q.qTagHeaderChecker droppedDataRate:vector ETV
attr interpolationmode linear
attr recordingmode vector
attr source throughput(packetDropped)
attr title "dropped data rate"
attr unit bps
vector 261 IVN_TSN_Network.usbMediaECU.ieee8021q.qTagHeaderChecker flowIncomingPacketLengths:vector ETV
attr interpolationmode none
attr recordingmode vector
attr source "packetLength(demuxFlow(merge(packetPushedIn, packetPulledIn)))"
attr title "flow specific incoming packet lengths"
attr unit b
vector 262 IVN_TSN_Network.usbMediaECU.ieee8021q.qTagHeaderChecker flowIncomingDataRate:vector ETV
attr interpolationmode linear
attr recordingmode vector
attr source "throughput(demuxFlow(merge(packetPushedIn, packetPulledIn)))"
attr title "flow specific incoming data rate"
attr unit bps
[...]
attr interpolationmode none
attr recordingmode vector
attr source packetLength(demuxFlow(packetDropped))
attr title "flow specific dropped packet lengths"
attr unit b
vector 5043 IVN_TSN_Network.tsnSwitch2.eth[3].phyLayer.phyHeaderChecker flowDroppedDataRate:vector ETV
attr interpolationmode linear
attr recordingmode vector
attr source throughput(demuxFlow(packetDropped))
attr title "flow specific dropped data rate"
attr unit bps
vector 5044 IVN_TSN_Network.tsnSwitch2.eth[3].phyLayer.inboundEmitter incomingPacketLengths:vector ETV
attr interpolationmode none
attr recordingmode vector
attr source "packetLength(merge(packetPushedIn, packetPulledIn))"
attr title "incoming packet lengths"
attr unit b
vector 5045 IVN_TSN_Network.tsnSwitch2.eth[3].phyLayer.inboundEmitter incomingDataRate:vector ETV
attr interpolationmode linear
attr recordingmode vector
attr source "throughput(merge(packetPushedIn, packetPulledIn))"
attr title "incoming data rate"
attr unit bps
vector 5046 IVN_TSN_Network.tsnSwitch2.eth[3].phyLayer.inboundEmitter outgoingPacketLengths:vector ETV
attr interpolationmode none
attr recordingmode vector
attr source "packetLength(merge(packetPushedOut, packetPulledOut))"
attr title "outgoing packet lengths"
attr unit b
vector 5047 IVN_TSN_Network.tsnSwitch2.eth[3].phyLayer.inboundEmitter outgoingDataRate:vector ETV
attr interpolationmode linear
attr recordingmode vector
attr source "throughput(merge(packetPushedOut, packetPulledOut))"
attr title "outgoing data rate"
attr unit bps
vector 5048 IVN_TSN_Network.tsnSwitch2.eth[3].phyLayer.inboundEmitter flowIncomingPacketLengths:vector ETV
attr interpolationmode none
attr recordingmode vector
attr source "packetLength(demuxFlow(merge(packetPushedIn, packetPulledIn)))"
attr title "flow specific incoming packet lengths"
attr unit b
vector 5049 IVN_TSN_Network.tsnSwitch2.eth[3].phyLayer.inboundEmitter flowIncomingDataRate:vector ETV
attr interpolationmode linear
attr recordingmode vector
attr source "throughput(demuxFlow(merge(packetPushedIn, packetPulledIn)))"
attr title "flow specific incoming data rate"
attr unit bps
vector 5050 IVN_TSN_Network.tsnSwitch2.eth[3].phyLayer.inboundEmitter flowOutgoingPacketLengths:vector ETV
attr interpolationmode none
attr recordingmode vector
attr source "packetLength(demuxFlow(merge(packetPushedOut, packetPulledOut)))"
attr title "flow specific outgoing packet lengths"
attr unit b
vector 5051 IVN_TSN_Network.tsnSwitch2.eth[3].phyLayer.inboundEmitter flowOutgoingDataRate:vector ETV
attr interpolationmode linear
attr recordingmode vector
attr source "throughput(demuxFlow(merge(packetPushedOut, packetPulledOut)))"
attr title "flow specific outgoing data rate"
attr unit bps
vector 5052 IVN_TSN_Network.tsnSwitch2.eth[3].phyLayer.receiver throughput:vector ETV
attr interpolationmode linear
attr recordingmode vector
attr source throughput(receptionEnded)
attr title throughput
attr unit bps
vector 5053 IVN_TSN_Network.tsnSwitch2.eth[3].phyLayer.receiver receptionTime:vector ETV
attr interpolationmode none
attr recordingmode vector
attr source packetDuration(receptionEnded)
attr title "reception time"
attr unit s
vector 5054 IVN_TSN_Network.tsnSwitch2.eth[3].phyLayer.receiver flowReceptionTime:vector ETV
attr interpolationmode none
attr recordingmode vector
attr source packetDuration(demuxFlow(receptionEnded))
attr title "flow reception time"
attr unit s
vector 5055 IVN_TSN_Network.tsnSwitch2.eth[3] packetDropInterfaceDown:vector(packetBytes) ETV
attr interpolationmode none
attr recordingmode vector(packetBytes)
attr source packetDropReasonIsInterfaceDown(packetDropped)
attr title "packet drops: interface down, packetBytes"
vector 5056 IVN_TSN_Network.tsnSwitch2.eth[3] packetDropNoCarrier:vector(packetBytes) ETV
attr interpolationmode none
attr recordingmode vector(packetBytes)
attr source packetDropReasonIsNoCarrier(packetDropped)
attr title "packet drops: no carrier, packetBytes"
52	0	0	0
52	0	0	0
52	0	0	0
52	0	0	0
52	0	0	0
53	0	0	0
53	0	0	0
53	0	0	0
53	0	0	0
53	0	0	0
103	0	0	0
103	0	0	0
112	0	0	0
112	0	0	0
151	0	0	0
152	0	0	0
153	0	0	0
271	0	0	0
271	0	0	0
271	0	0	0
271	0	0	0
271	0	0	0
272	0	0	0
272	0	0	0
272	0	0	0
272	0	0	0
272	0	0	0
322	0	0	0
322	0	0	0
331	0	0	0
331	0	0	0
370	0	0	0
371	0	0	0
372	0	0	0
373	0	0	4000
375	3	0	500
483	0	0	0
483	0	0	0
483	0	0	0
483	0	0	0
483	0	0	0
484	0	0	0
484	0	0	0
484	0	0	0
484	0	0	0
484	0	0	0
534	0	0	0
534	0	0	0
543	0	0	0
543	0	0	0
582	0	0	0
583	0	0	0
584	0	0	0
585	0	0	0
587	5	0	0
695	0	0	0
695	0	0	0
695	0	0	0
695	0	0	0
695	0	0	0
696	0	0	0
696	0	0	0
696	0	0	0
696	0	0	0
696	0	0	0
746	0	0	0
746	0	0	0
755	0	0	0
755	0	0	0
794	0	0	0
795	0	0	0
796	0	0	0
797	0	0	0
799	7	0	0
853	0	0	0
853	0	0	0
853	0	0	0
853	0	0	0
853	0	0	0
854	0	0	0
854	0	0	0
854	0	0	0
854	0	0	0
854	0	0	0
904	0	0	0
904	0	0	0
913	0	0	0
913	0	0	0
952	0	0	0
953	0	0	0
954	0	0	0
1018	0	0	0
1018	0	0	0
1018	0	0	0
1018	0	0	0
1018	0	0	0
1019	0	0	0
1019	0	0	0
1019	0	0	0
1019	0	0	0
1019	0	0	0
1069	0	0	0
1069	0	0	0
1078	0	0	0
1078	0	0	0
1117	0	0	0
1118	0	0	0
1119	0	0	0
1248	0	0	0
1248	0	0	0
1248	0	0	0
1248	0	0	0
1248	0	0	0
1249	0	0	0
1249	0	0	0
1249	0	0	0
1249	0	0	0
1249	0	0	0
1299	0	0	0
1299	0	0	0
1308	0	0	0
1308	0	0	0
1347	0	0	0
1348	0	0	0
1349	0	0	0
1350	0	0	512
1352	11	0	64
1354	0	0	512
1356	12	0	64
1486	0	0	0
1486	0	0	0
1486	0	0	0
1486	0	0	0
1486	0	0	0
1487	0	0	0
1487	0	0	0
1487	0	0	0
1487	0	0	0
1487	0	0	0
1537	0	0	0
1537	0	0	0
1546	0	0	0
1546	0	0	0
1585	0	0	0
1586	0	0	0
1587	0	0	0
1588	0	0	0
1590	14	0	0
1701	0	0	0
1701	0	0	0
1701	0	0	0
1701	0	0	0
1701	0	0	0
1702	0	0	0
1702	0	0	0
1702	0	0	0
1702	0	0	0
1702	0	0	0
1712	0	0	0
1712	0	0	0
1712	0	0	0
1712	0	0	0
1712	0	0	0
1713	0	0	0
1713	0	0	0
1713	0	0	0
1713	0	0	0
1713	0	0	0
1723	0	0	0
1723	0	0	0
1723	0	0	0
1723	0	0	0
1723	0	0	0
1724	0	0	0
1724	0	0	0
1724	0	0	0
1724	0	0	0
1724	0	0	0
1734	0	0	0
1734	0	0	0
1734	0	0	0
1734	0	0	0
1734	0	0	0
1735	0	0	0
1735	0	0	0
1735	0	0	0
1735	0	0	0
1735	0	0	0
1745	0	0	0
1745	0	0	0
1745	0	0	0
1745	0	0	0
1745	0	0	0
1746	0	0	0
1746	0	0	0
1746	0	0	0
1746	0	0	0
1746	0	0	0
1756	0	0	0
1756	0	0	0
1756	0	0	0
1756	0	0	0
1756	0	0	0
1757	0	0	0
1757	0	0	0
1757	0	0	0
1757	0	0	0
1757	0	0	0
1767	0	0	0
1767	0	0	0
1767	0	0	0
1767	0	0	0
1767	0	0	0
1768	0	0	0
1768	0	0	0
1768	0	0	0
1768	0	0	0
1768	0	0	0
1778	0	0	0
1778	0	0	0
1778	0	0	0
1778	0	0	0
1778	0	0	0
1779	0	0	0
1779	0	0	0
1779	0	0	0
1779	0	0	0
1779	0	0	0
1797	0	0	1
1798	0	0	0
1807	0	0	1
1808	0	0	0
1817	0	0	1
1818	0	0	0
1827	0	0	1
1828	0	0	0
1837	0	0	1
1838	0	0	0
1847	0	0	0
1848	0	0	0
1857	0	0	1
1858	0	0	0
1867	0	0	1
1868	0	0	0
1871	0	0	0
1871	0	0	0
1871	0	0	0
1871	0	0	0
1871	0	0	0
1872	0	0	0
1872	0	0	0
1872	0	0	0
1872	0	0	0
1872	0	0	0
1922	0	0	0
1922	0	0	0
1931	0	0	0
1931	0	0	0
1963	0	0	0
1963	0	0	0
1963	0	0	0
1963	0	0	0
1963	0	0	0
1964	0	0	0
1964	0	0	0
1964	0	0	0
1964	0	0	0
1964	0	0	0
1974	0	0	0
1974	0	0	0
1974	0	0	0
1974	0	0	0
1974	0	0	0
1975	0	0	0
1975	0	0	0
1975	0	0	0
1975	0	0	0
1975	0	0	0
1985	0	0	0
1985	0	0	0
1985	0	0	0
1985	0	0	0
1985	0	0	0
1986	0	0	0
1986	0	0	0
1986	0	0	0
1986	0	0	0
1986	0	0	0
1996	0	0	0
1996	0	0	0
1996	0	0	0
1996	0	0	0
1996	0	0	0
1997	0	0	0
1997	0	0	0
1997	0	0	0
1997	0	0	0
1997	0	0	0
2007	0	0	0
2007	0	0	0
2007	0	0	0
2007	0	0	0
2007	0	0	0
2008	0	0	0
2008	0	0	0
2008	0	0	0
2008	0	0	0
2008	0	0	0
2018	0	0	0
2018	0	0	0
2018	0	0	0
2018	0	0	0
2018	0	0	0
2019	0	0	0
2019	0	0	0
2019	0	0	0
2019	0	0	0
2019	0	0	0
2029	0	0	0
2029	0	0	0
2029	0	0	0
2029	0	0	0
2029	0	0	0
2030	0	0	0
2030	0	0	0
2030	0	0	0
2030	0	0	0
2030	0	0	0
2040	0	0	0
2040	0	0	0
2040	0	0	0
2040	0	0	0
2040	0	0	0
2041	0	0	0
2041	0	0	0
2041	0	0	0
2041	0	0	0
2041	0	0	0
2059	0	0	1
2060	0	0	0
2069	0	0	1
2070	0	0	0
2079	0	0	1
2080	0	0	0
2089	0	0	1
2090	0	0	0
2099	0	0	1
2100	0	0	0
2109	0	0	0
2110	0	0	0
2119	0	0	1
2120	0	0	0
2129	0	0	1
2130	0	0	0
2133	0	0	0
2133	0	0	0
2133	0	0	0
2133	0	0	0
2133	0	0	0
2134	0	0	0
2134	0	0	0
2134	0	0	0
2134	0	0	0
2134	0	0	0
2184	0	0	0
2184	0	0	0
2193	0	0	0
2193	0	0	0
2225	0	0	0
2225	0	0	0
2225	0	0	0
2225	0	0	0
2225	0	0	0
2226	0	0	0
2226	0	0	0
2226	0	0	0
2226	0	0	0
2226	0	0	0
2236	0	0	0
2236	0	0	0
2236	0	0	0
2236	0	0	0
2236	0	0	0
2237	0	0	0
2237	0	0	0
2237	0	0	0
2237	0	0	0
2237	0	0	0
2247	0	0	0
2247	0	0	0
2247	0	0	0
2247	0	0	0
2247	0	0	0
2248	0	0	0
2248	0	0	0
2248	0	0	0
2248	0	0	0
2248	0	0	0
2258	0	0	0
2258	0	0	0
2258	0	0	0
2258	0	0	0
2258	0	0	0
2259	0	0	0
2259	0	0	0
2259	0	0	0
2259	0	0	0
2259	0	0	0
2269	0	0	0
2269	0	0	0
2269	0	0	0
2269	0	0	0
2269	0	0	0
2270	0	0	0
2270	0	0	0
2270	0	0	0
2270	0	0	0
2270	0	0	0
2280	0	0	0
2280	0	0	0
2280	0	0	0
2280	0	0	0
2280	0	0	0
2281	0	0	0
2281	0	0	0
2281	0	0	0
2281	0	0	0
2281	0	0	0
2291	0	0	0
2291	0	0	0
2291	0	0	0
2291	0	0	0
2291	0	0	0
2292	0	0	0
2292	0	0	0
2292	0	0	0
2292	0	0	0
2292	0	0	0
2302	0	0	0
2302	0	0	0
2302	0	0	0
2302	0	0	0
2302	0	0	0
2303	0	0	0
2303	0	0	0
2303	0	0	0
2303	0	0	0
2303	0	0	0
2321	0	0	1
2322	0	0	0
2331	0	0	1
2332	0	0	0
2341	0	0	1
2342	0	0	0
2351	0	0	1
2352	0	0	0
2361	0	0	1
2362	0	0	0
2371	0	0	0
2372	0	0	0
2381	0	0	1
2382	0	0	0
2391	0	0	1
2392	0	0	0
2395	0	0	0
2395	0	0	0
2395	0	0	0
2395	0	0	0
2395	0	0	0
2396	0	0	0
2396	0	0	0
2396	0	0	0
2396	0	0	0
2396	0	0	0
2446	0	0	0
2446	0	0	0
2455	0	0	0
2455	0	0	0
2487	0	0	0
2487	0	0	0
2487	0	0	0
2487	0	0	0
2487	0	0	0
2488	0	0	0
2488	0	0	0
2488	0	0	0
2488	0	0	0
2488	0	0	0
2498	0	0	0
2498	0	0	0
2498	0	0	0
2498	0	0	0
2498	0	0	0
2499	0	0	0
2499	0	0	0
2499	0	0	0
2499	0	0	0
2499	0	0	0
2509	0	0	0
2509	0	0	0
2509	0	0	0
2509	0	0	0
2509	0	0	0
2510	0	0	0
2510	0	0	0
2510	0	0	0
2510	0	0	0
2510	0	0	0
2520	0	0	0
2520	0	0	0
2520	0	0	0
2520	0	0	0
2520	0	0	0
2521	0	0	0
2521	0	0	0
2521	0	0	0
2521	0	0	0
2521	0	0	0
2531	0	0	0
2531	0	0	0
2531	0	0	0
2531	0	0	0
2531	0	0	0
2532	0	0	0
2532	0	0	0
2532	0	0	0
2532	0	0	0
2532	0	0	0
2542	0	0	0
2542	0	0	0
2542	0	0	0
2542	0	0	0
2542	0	0	0
2543	0	0	0
2543	0	0	0
2543	0	0	0
2543	0	0	0
2543	0	0	0
2553	0	0	0
2553	0	0	0
2553	0	0	0
2553	0	0	0
2553	0	0	0
2554	0	0	0
2554	0	0	0
2554	0	0	0
2554	0	0	0
2554	0	0	0
2564	0	0	0
2564	0	0	0
2564	0	0	0
2564	0	0	0
2564	0	0	0
2565	0	0	0
2565	0	0	0
2565	0	0	0
2565	0	0	0
2565	0	0	0
2583	0	0	1
2584	0	0	0
2593	0	0	1
2594	0	0	0
2603	0	0	1
2604	0	0	0
2613	0	0	1
2614	0	0	0
2623	0	0	1
2624	0	0	0
2633	0	0	0
2634	0	0	0
2643	0	0	1
2644	0	0	0
2653	0	0	1
2654	0	0	0
2657	0	0	0
2657	0	0	0
2657	0	0	0
2657	0	0	0
2657	0	0	0
2658	0	0	0
2658	0	0	0
2658	0	0	0
2658	0	0	0
2658	0	0	0
2708	0	0	0
2708	0	0	0
2717	0	0	0
2717	0	0	0
2856	0	0	0
2856	0	0	0
2856	0	0	0
2856	0	0	0
2856	0	0	0
2857	0	0	0
2857	0	0	0
2857	0	0	0
2857	0	0	0
2857	0	0	0
2867	0	0	0
2867	0	0	0
2867	0	0	0
2867	0	0	0
2867	0	0	0
2868	0	0	0
2868	0	0	0
2868	0	0	0
2868	0	0	0
2868	0	0	0
2878	0	0	0
2878	0	0	0
2878	0	0	0
2878	0	0	0
2878	0	0	0
2879	0	0	0
2879	0	0	0
2879	0	0	0
2879	0	0	0
2879	0	0	0
2889	0	0	0
2889	0	0	0
2889	0	0	0
2889	0	0	0
2889	0	0	0
2890	0	0	0
2890	0	0	0
2890	0	0	0
2890	0	0	0
2890	0	0	0
2900	0	0	0
2900	0	0	0
2900	0	0	0
2900	0	0	0
2900	0	0	0
2901	0	0	0
2901	0	0	0
2901	0	0	0
2901	0	0	0
2901	0	0	0
2911	0	0	0
2911	0	0	0
2911	0	0	0
2911	0	0	0
2911	0	0	0
2912	0	0	0
2912	0	0	0
2912	0	0	0
2912	0	0	0
2912	0	0	0
2922	0	0	0
2922	0	0	0
2922	0	0	0
2922	0	0	0
2922	0	0	0
2923	0	0	0
2923	0	0	0
2923	0	0	0
2923	0	0	0
2923	0	0	0
2933	0	0	0
2933	0	0	0
2933	0	0	0
2933	0	0	0
2933	0	0	0
2934	0	0	0
2934	0	0	0
2934	0	0	0
2934	0	0	0
2934	0	0	0
2952	0	0	1
2953	0	0	0
2962	0	0	1
2963	0	0	0
2972	0	0	1
2973	0	0	0
2982	0	0	1
2983	0	0	0
2992	0	0	1
2993	0	0	0
3002	0	0	0
3003	0	0	0
3012	0	0	1
3013	0	0	0
3022	0	0	1
3023	0	0	0
3026	0	0	0
3026	0	0	0
3026	0	0	0
3026	0	0	0
3026	0	0	0
3027	0	0	0
3027	0	0	0
3027	0	0	0
3027	0	0	0
3027	0	0	0
3077	0	0	0
3077	0	0	0
3086	0	0	0
3086	0	0	0
3118	0	0	0
3118	0	0	0
3118	0	0	0
3118	0	0	0
3118	0	0	0
3119	0	0	0
3119	0	0	0
3119	0	0	0
3119	0	0	0
3119	0	0	0
3129	0	0	0
3129	0	0	0
3129	0	0	0
3129	0	0	0
3129	0	0	0
3130	0	0	0
3130	0	0	0
3130	0	0	0
3130	0	0	0
3130	0	0	0
3140	0	0	0
3140	0	0	0
3140	0	0	0
3140	0	0	0
3140	0	0	0
3141	0	0	0
3141	0	0	0
3141	0	0	0
3141	0	0	0
3141	0	0	0
3151	0	0	0
3151	0	0	0
3151	0	0	0
3151	0	0	0
3151	0	0	0
3152	0	0	0
3152	0	0	0
3152	0	0	0
3152	0	0	0
3152	0	0	0
3162	0	0	0
3162	0	0	0
3162	0	0	0
3162	0	0	0
3162	0	0	0
3163	0	0	0
3163	0	0	0
3163	0	0	0
3163	0	0	0
3163	0	0	0
3173	0	0	0
3173	0	0	0
3173	0	0	0
3173	0	0	0
3173	0	0	0
3174	0	0	0
3174	0	0	0
3174	0	0	0
3174	0	0	0
3174	0	0	0
3184	0	0	0
3184	0	0	0
3184	0	0	0
3184	0	0	0
3184	0	0	0
3185	0	0	0
3185	0	0	0
3185	0	0	0
3185	0	0	0
3185	0	0	0
3195	0	0	0
3195	0	0	0
3195	0	0	0
3195	0	0	0
3195	0	0	0
3196	0	0	0
3196	0	0	0
3196	0	0	0
3196	0	0	0
3196	0	0	0
3214	0	0	1
3215	0	0	0
3224	0	0	1
3225	0	0	0
3234	0	0	1
3235	0	0	0
3244	0	0	1
3245	0	0	0
3254	0	0	1
3255	0	0	0
3264	0	0	0
3265	0	0	0
3274	0	0	1
3275	0	0	0
3284	0	0	1
3285	0	0	0
3288	0	0	0
3288	0	0	0
3288	0	0	0
3288	0	0	0
3288	0	0	0
3289	0	0	0
3289	0	0	0
3289	0	0	0
3289	0	0	0
3289	0	0	0
3339	0	0	0
3339	0	0	0
3348	0	0	0
3348	0	0	0
3380	0	0	0
3380	0	0	0
3380	0	0	0
3380	0	0	0
3380	0	0	0
3381	0	0	0
3381	0	0	0
3381	0	0	0
3381	0	0	0
3381	0	0	0
3391	0	0	0
3391	0	0	0
3391	0	0	0
3391	0	0	0
3391	0	0	0
3392	0	0	0
3392	0	0	0
3392	0	0	0
3392	0	0	0
3392	0	0	0
3402	0	0	0
3402	0	0	0
3402	0	0	0
3402	0	0	0
3402	0	0	0
3403	0	0	0
3403	0	0	0
3403	0	0	0
3403	0	0	0
3403	0	0	0
3413	0	0	0
3413	0	0	0
3413	0	0	0
3413	0	0	0
3413	0	0	0
3414	0	0	0
3414	0	0	0
3414	0	0	0
3414	0	0	0
3414	0	0	0
3424	0	0	0
3424	0	0	0
3424	0	0	0
3424	0	0	0
3424	0	0	0
3425	0	0	0
3425	0	0	0
3425	0	0	0
3425	0	0	0
3425	0	0	0
3435	0	0	0
3435	0	0	0
3435	0	0	0
3435	0	0	0
3435	0	0	0
3436	0	0	0
3436	0	0	0
3436	0	0	0
3436	0	0	0
3436	0	0	0
3446	0	0	0
3446	0	0	0
3446	0	0	0
3446	0	0	0
3446	0	0	0
3447	0	0	0
3447	0	0	0
3447	0	0	0
3447	0	0	0
3447	0	0	0
3457	0	0	0
3457	0	0	0
3457	0	0	0
3457	0	0	0
3457	0	0	0
3458	0	0	0
3458	0	0	0
3458	0	0	0
3458	0	0	0
3458	0	0	0
3476	0	0	1
3477	0	0	0
3486	0	0	1
3487	0	0	0
3496	0	0	1
3497	0	0	0
3506	0	0	1
3507	0	0	0
3516	0	0	1
3517	0	0	0
3526	0	0	0
3527	0	0	0
3536	0	0	1
3537	0	0	0
3546	0	0	1
3547	0	0	0
3550	0	0	0
3550	0	0	0
3550	0	0	0
3550	0	0	0
3550	0	0	0
3551	0	0	0
3551	0	0	0
3551	0	0	0
3551	0	0	0
3551	0	0	0
3601	0	0	0
3601	0	0	0
3610	0	0	0
3610	0	0	0
3642	0	0	0
3642	0	0	0
3642	0	0	0
3642	0	0	0
3642	0	0	0
3643	0	0	0
3643	0	0	0
3643	0	0	0
3643	0	0	0
3643	0	0	0
3653	0	0	0
3653	0	0	0
3653	0	0	0
3653	0	0	0
3653	0	0	0
3654	0	0	0
3654	0	0	0
3654	0	0	0
3654	0	0	0
3654	0	0	0
3664	0	0	0
3664	0	0	0
3664	0	0	0
3664	0	0	0
3664	0	0	0
3665	0	0	0
3665	0	0	0
3665	0	0	0
3665	0	0	0
3665	0	0	0
3675	0	0	0
3675	0	0	0
3675	0	0	0
3675	0	0	0
3675	0	0	0
3676	0	0	0
3676	0	0	0
3676	0	0	0
3676	0	0	0
3676	0	0	0
3686	0	0	0
3686	0	0	0
3686	0	0	0
3686	0	0	0
3686	0	0	0
3687	0	0	0
3687	0	0	0
3687	0	0	0
3687	0	0	0
3687	0	0	0
3697	0	0	0
3697	0	0	0
3697	0	0	0
3697	0	0	0
3697	0	0	0
3698	0	0	0
3698	0	0	0
3698	0	0	0
3698	0	0	0
3698	0	0	0
3708	0	0	0
3708	0	0	0
3708	0	0	0
3708	0	0	0
3708	0	0	0
3709	0	0	0
3709	0	0	0
3709	0	0	0
3709	0	0	0
3709	0	0	0
3719	0	0	0
3719	0	0	0
3719	0	0	0
3719	0	0	0
3719	0	0	0
3720	0	0	0
3720	0	0	0
3720	0	0	0
3720	0	0	0
3720	0	0	0
3738	0	0	1
3739	0	0	0
3748	0	0	1
3749	0	0	0
3758	0	0	1
3759	0	0	0
3768	0	0	1
3769	0	0	0
3778	0	0	1
3779	0	0	0
3788	0	0	0
3789	0	0	0
3798	0	0	1
3799	0	0	0
3808	0	0	1
3809	0	0	0
3812	0	0	0
3812	0	0	0
3812	0	0	0
3812	0	0	0
3812	0	0	0
3813	0	0	0
3813	0	0	0
3813	0	0	0
3813	0	0	0
3813	0	0	0
3863	0	0	0
3863	0	0	0
3872	0	0	0
3872	0	0	0
4011	0	0	0
4011	0	0	0
4011	0	0	0
4011	0	0	0
4011	0	0	0
4012	0	0	0
4012	0	0	0
4012	0	0	0
4012	0	0	0
4012	0	0	0
4022	0	0	0
4022	0	0	0
4022	0	0	0
4022	0	0	0
4022	0	0	0
4023	0	0	0
4023	0	0	0
4023	0	0	0
4023	0	0	0
4023	0	0	0
4033	0	0	0
4033	0	0	0
4033	0	0	0
4033	0	0	0
4033	0	0	0
4034	0	0	0
4034	0	0	0
4034	0	0	0
4034	0	0	0
4034	0	0	0
4044	0	0	0
4044	0	0	0
4044	0	0	0
4044	0	0	0
4044	0	0	0
4045	0	0	0
4045	0	0	0
4045	0	0	0
4045	0	0	0
4045	0	0	0
4055	0	0	0
4055	0	0	0
4055	0	0	0
4055	0	0	0
4055	0	0	0
4056	0	0	0
4056	0	0	0
4056	0	0	0
4056	0	0	0
4056	0	0	0
4066	0	0	0
4066	0	0	0
4066	0	0	0
4066	0	0	0
4066	0	0	0
4067	0	0	0
4067	0	0	0
4067	0	0	0
4067	0	0	0
4067	0	0	0
4077	0	0	0
4077	0	0	0
4077	0	0	0
4077	0	0	0
4077	0	0	0
4078	0	0	0
4078	0	0	0
4078	0	0	0
4078	0	0	0
4078	0	0	0
4088	0	0	0
4088	0	0	0
4088	0	0	0
4088	0	0	0
4088	0	0	0
4089	0	0	0
4089	0	0	0
4089	0	0	0
4089	0	0	0
4089	0	0	0
4107	0	0	1
4108	0	0	0
4117	0	0	1
4118	0	0	0
4127	0	0	1
4128	0	0	0
4137	0	0	1
4138	0	0	0
4147	0	0	1
4148	0	0	0
4157	0	0	0
4158	0	0	0
4167	0	0	1
4168	0	0	0
4177	0	0	1
4178	0	0	0
4181	0	0	0
4181	0	0	0
4181	0	0	0
4181	0	0	0
4181	0	0	0
4182	0	0	0
4182	0	0	0
4182	0	0	0
4182	0	0	0
4182	0	0	0
4232	0	0	0
4232	0	0	0
4241	0	0	0
4241	0	0	0
4273	0	0	0
4273	0	0	0
4273	0	0	0
4273	0	0	0
4273	0	0	0
4274	0	0	0
4274	0	0	0
4274	0	0	0
4274	0	0	0
4274	0	0	0
4284	0	0	0
4284	0	0	0
4284	0	0	0
4284	0	0	0
4284	0	0	0
4285	0	0	0
4285	0	0	0
4285	0	0	0
4285	0	0	0
4285	0	0	0
4295	0	0	0
4295	0	0	0
4295	0	0	0
4295	0	0	0
4295	0	0	0
4296	0	0	0
4296	0	0	0
4296	0	0	0
4296	0	0	0
4296	0	0	0
4306	0	0	0
4306	0	0	0
4306	0	0	0
4306	0	0	0
4306	0	0	0
4307	0	0	0
4307	0	0	0
4307	0	0	0
4307	0	0	0
4307	0	0	0
4317	0	0	0
4317	0	0	0
4317	0	0	0
4317	0	0	0
4317	0	0	0
4318	0	0	0
4318	0	0	0
4318	0	0	0
4318	0	0	0
4318	0	0	0
4328	0	0	0
4328	0	0	0
4328	0	0	0
4328	0	0	0
4328	0	0	0
4329	0	0	0
4329	0	0	0
4329	0	0	0
4329	0	0	0
4329	0	0	0
4339	0	0	0
4339	0	0	0
4339	0	0	0
4339	0	0	0
4339	0	0	0
4340	0	0	0
4340	0	0	0
4340	0	0	0
4340	0	0	0
4340	0	0	0
4350	0	0	0
4350	0	0	0
4350	0	0	0
4350	0	0	0
4350	0	0	0
4351	0	0	0
4351	0	0	0
4351	0	0	0
4351	0	0	0
4351	0	0	0
4369	0	0	1
4370	0	0	0
4379	0	0	1
4380	0	0	0
4389	0	0	1
4390	0	0	0
4399	0	0	1
4400	0	0	0
4409	0	0	1
4410	0	0	0
4419	0	0	0
4420	0	0	0
4429	0	0	1
4430	0	0	0
4439	0	0	1
4440	0	0	0
4443	0	0	0
4443	0	0	0
4443	0	0	0
4443	0	0	0
4443	0	0	0
4444	0	0	0
4444	0	0	0
4444	0	0	0
4444	0	0	0
4444	0	0	0
4494	0	0	0
4494	0	0	0
4503	0	0	0
4503	0	0	0
4535	0	0	0
4535	0	0	0
4535	0	0	0
4535	0	0	0
4535	0	0	0
4536	0	0	0
4536	0	0	0
4536	0	0	0
4536	0	0	0
4536	0	0	0
4546	0	0	0
4546	0	0	0
4546	0	0	0
4546	0	0	0
4546	0	0	0
4547	0	0	0
4547	0	0	0
4547	0	0	0
4547	0	0	0
4547	0	0	0
4557	0	0	0
4557	0	0	0
4557	0	0	0
4557	0	0	0
4557	0	0	0
4558	0	0	0
4558	0	0	0
4558	0	0	0
4558	0	0	0
4558	0	0	0
4568	0	0	0
4568	0	0	0
4568	0	0	0
4568	0	0	0
4568	0	0	0
4569	0	0	0
4569	0	0	0
4569	0	0	0
4569	0	0	0
4569	0	0	0
4579	0	0	0
4579	0	0	0
4579	0	0	0
4579	0	0	0
4579	0	0	0
4580	0	0	0
4580	0	0	0
4580	0	0	0
4580	0	0	0
4580	0	0	0
4590	0	0	0
4590	0	0	0
4590	0	0	0
4590	0	0	0
4590	0	0	0
4591	0	0	0
4591	0	0	0
4591	0	0	0
4591	0	0	0
4591	0	0	0
4601	0	0	0
4601	0	0	0
4601	0	0	0
4601	0	0	0
4601	0	0	0
4602	0	0	0
4602	0	0	0
4602	0	0	0
4602	0	0	0
4602	0	0	0
4612	0	0	0
4612	0	0	0
4612	0	0	0
4612	0	0	0
4612	0	0	0
4613	0	0	0
4613	0	0	0
4613	0	0	0
4613	0	0	0
4613	0	0	0
4631	0	0	1
4632	0	0	0
4641	0	0	1
4642	0	0	0
4651	0	0	1
4652	0	0	0
4661	0	0	1
4662	0	0	0
4671	0	0	1
4672	0	0	0
4681	0	0	0
4682	0	0	0
4691	0	0	1
4692	0	0	0
4701	0	0	1
4702	0	0	0
4705	0	0	0
4705	0	0	0
4705	0	0	0
4705	0	0	0
4705	0	0	0
4706	0	0	0
4706	0	0	0
4706	0	0	0
4706	0	0	0
4706	0	0	0
4756	0	0	0
4756	0	0	0
4765	0	0	0
4765	0	0	0
4797	0	0	0
4797	0	0	0
4797	0	0	0
4797	0	0	0
4797	0	0	0
4798	0	0	0
4798	0	0	0
4798	0	0	0
4798	0	0	0
4798	0	0	0
4808	0	0	0
4808	0	0	0
4808	0	0	0
4808	0	0	0
4808	0	0	0
4809	0	0	0
4809	0	0	0
4809	0	0	0
4809	0	0	0
4809	0	0	0
4819	0	0	0
4819	0	0	0
4819	0	0	0
4819	0	0	0
4819	0	0	0
4820	0	0	0
4820	0	0	0
4820	0	0	0
4820	0	0	0
4820	0	0	0
4830	0	0	0
4830	0	0	0
4830	0	0	0
4830	0	0	0
4830	0	0	0
4831	0	0	0
4831	0	0	0
4831	0	0	0
4831	0	0	0
4831	0	0	0
4841	0	0	0
4841	0	0	0
4841	0	0	0
4841	0	0	0
4841	0	0	0
4842	0	0	0
4842	0	0	0
4842	0	0	0
4842	0	0	0
4842	0	0	0
4852	0	0	0
4852	0	0	0
4852	0	0	0
4852	0	0	0
4852	0	0	0
4853	0	0	0
4853	0	0	0
4853	0	0	0
4853	0	0	0
4853	0	0	0
4863	0	0	0
4863	0	0	0
4863	0	0	0
4863	0	0	0
4863	0	0	0
4864	0	0	0
4864	0	0	0
4864	0	0	0
4864	0	0	0
4864	0	0	0
4874	0	0	0
4874	0	0	0
4874	0	0	0
4874	0	0	0
4874	0	0	0
4875	0	0	0
4875	0	0	0
4875	0	0	0
4875	0	0	0
4875	0	0	0
4893	0	0	1
4894	0	0	0
4903	0	0	1
4904	0	0	0
4913	0	0	1
4914	0	0	0
4923	0	0	1
4924	0	0	0
4933	0	0	1
4934	0	0	0
4943	0	0	0
4944	0	0	0
4953	0	0	1
4954	0	0	0
4963	0	0	1
4964	0	0	0
4967	0	0	0
4967	0	0	0
4967	0	0	0
4967	0	0	0
4967	0	0	0
4968	0	0	0
4968	0	0	0
4968	0	0	0
4968	0	0	0
4968	0	0	0
5018	0	0	0
5018	0	0	0
5027	0	0	0
5027	0	0	0

