version 3
run General-0-20251029-22:35:28-42059
attr configname General
attr datetime 20251029-22:35:28
attr datetimef 20251029-223528
attr experiment General
attr inifile omnetpp.ini
attr iterationvars ""
attr iterationvarsd ""
attr iterationvarsf ""
attr measurement ""
attr network inet.networks.tsn.TsnLinearNetwork
attr processid 42059
attr repetition 0
attr replication #0
attr resultdir results
attr runnumber 0
attr seedset 0
config image-path ../../omnetpp/inet-4.5.4/images
config network inet.networks.tsn.TsnLinearNetwork
config sim-time-limit 1s
config description "Traffic shaping using time-aware shapers"
config **.displayGateSchedules true
config **.gateFilter "\"**.eth[1].**\""
config **.gateScheduleVisualizer.height 16
config **.gateScheduleVisualizer.placementHint "\"top\""
config *.client.numApps 2
config *.client.app[*].typename UdpSourceApp
config *.client.app[*].io.destAddress "\"server\""
config *.client.app[0].display-name "speed/torque command"
config *.client.app[0].io.destPort 1000
config *.client.app[0].source.productionInterval exponential(1ms)
config *.client.app[0].source.packetLength "128B - 64B"
config *.client.app[1].display-name "brake command"
config *.client.app[1].io.destPort 1001
config *.client.app[1].source.productionInterval exponential(10ms)
config *.client.app[1].source.packetLength 256B
config *.server.numApps 2
config *.server.app[*].typename UdpSinkApp
config *.server.app[0].io.localPort 1000
config *.server.app[1].io.localPort 1001
config *.client.hasOutgoingStreams true
config *.client.bridging.streamIdentifier.identifier.mapping "[{stream: \"speed/torque command\", packetFilter: expr(udp.destPort == 1000)},\n                                                         {stream: \"brake command\", packetFilter: expr(udp.destPort == 1001)}]"
config *.client.bridging.streamCoder.encoder.mapping "[{stream: \"speed/torque command\", pcp: 1},\n                                                 {stream: \"brake command\", pcp: 7}]"
config *.switch.hasEgressTrafficShaping true
config *.switch.bridging.directionReverser.reverser.excludeEncapsulationProtocols "[\"ieee8021qctag\"]"
config *.switch.eth[*].macLayer.queue.numTrafficClasses 8
config *.switch.eth[*].macLayer.queue.*[1].display-name "speed/torque command"
config *.switch.eth[*].macLayer.queue.transmissionGate[1].offset 0ms
config *.switch.eth[*].macLayer.queue.transmissionGate[1].durations "[4ms, 6ms]"
config *.switch.eth[*].macLayer.queue.*[7].display-name "brake command"
config *.switch.eth[*].macLayer.queue.transmissionGate[7].offset 6ms
config *.switch.eth[*].macLayer.queue.transmissionGate[7].durations "[2ms, 8ms]"

vector 0 TsnLinearNetwork.client.bridging.directionReverser.reverser incomingPacketLengths:vector ETV
attr interpolationmode none
attr recordingmode vector
attr source "packetLength(merge(packetPushedIn, packetPulledIn))"
attr title "incoming packet lengths"
attr unit b
vector 1 TsnLinearNetwork.client.bridging.directionReverser.reverser incomingDataRate:vector ETV
attr interpolationmode linear
attr recordingmode vector
attr source "throughput(merge(packetPushedIn, packetPulledIn))"
attr title "incoming data rate"
attr unit bps
vector 2 TsnLinearNetwork.client.bridging.directionReverser.reverser outgoingPacketLengths:vector ETV
attr interpolationmode none
attr recordingmode vector
attr source "packetLength(merge(packetPushedOut, packetPulledOut))"
attr title "outgoing packet lengths"
attr unit b
vector 3 TsnLinearNetwork.client.bridging.directionReverser.reverser outgoingDataRate:vector ETV
attr interpolationmode linear
attr recordingmode vector
attr source "throughput(merge(packetPushedOut, packetPulledOut))"
attr title "outgoing data rate"
attr unit bps
vector 4 TsnLinearNetwork.client.bridging.directionReverser.reverser flowIncomingPacketLengths:vector ETV
attr interpolationmode none
attr recordingmode vector
attr source "packetLength(demuxFlow(merge(packetPushedIn, packetPulledIn)))"
attr title "flow specific incoming packet lengths"
attr unit b
vector 5 TsnLinearNetwork.client.bridging.directionReverser.reverser flowIncomingDataRate:vector ETV
attr interpolationmode linear
attr recordingmode vector
attr source "throughput(demuxFlow(merge(packetPushedIn, packetPulledIn)))"
attr title "flow specific incoming data rate"
attr unit bps
vector 6 TsnLinearNetwork.client.bridging.directionReverser.reverser flowOutgoingPacketLengths:vector ETV
attr interpolationmode none
attr recordingmode vector
attr source "packetLength(demuxFlow(merge(packetPushedOut, packetPulledOut)))"
attr title "flow specific outgoing packet lengths"
attr unit b
vector 7 TsnLinearNetwork.client.bridging.directionReverser.reverser flowOutgoingDataRate:vector ETV
attr interpolationmode linear
attr recordingmode vector
attr source "throughput(demuxFlow(merge(packetPushedOut, packetPulledOut)))"
attr title "flow specific outgoing data rate"
attr unit bps
vector 8 TsnLinearNetwork.client.bridging.directionReverser.join packetLengths:vector ETV
attr interpolationmode none
attr recordingmode vector
attr source "packetLength(merge(packetPushed, packetPulled))"
attr title "packet lengths"
attr unit b
vector 9 TsnLinearNetwork.client.bridging.directionReverser.join dataRate:vector ETV
attr interpolationmode linear
attr recordingmode vector
attr source "throughput(merge(packetPushed, packetPulled))"
attr title "data rate"
attr unit bps
vector 10 TsnLinearNetwork.client.bridging.streamIdentifier.identifier incomingPacketLengths:vector ETV
attr interpolationmode none
attr recordingmode vector
attr source "packetLength(merge(packetPushedIn, packetPulledIn))"
attr title "incoming packet lengths"
attr unit b
vector 11 TsnLinearNetwork.client.bridging.streamIdentifier.identifier incomingDataRate:vector ETV
attr interpolationmode linear
attr recordingmode vector
attr source "throughput(merge(packetPushedIn, packetPulledIn))"
attr title "incoming data rate"
attr unit bps
vector 12 TsnLinearNetwork.client.bridging.streamIdentifier.identifier outgoingPacketLengths:vector ETV
attr interpolationmode none
attr recordingmode vector
attr source "packetLength(merge(packetPushedOut, packetPulledOut))"
attr title "outgoing packet lengths"
attr unit b
vector 13 TsnLinearNetwork.client.bridging.streamIdentifier.identifier outgoingDataRate:vector ETV
attr interpolationmode linear
attr recordingmode vector
attr source "throughput(merge(packetPushedOut, packetPulledOut))"
attr title "outgoing data rate"
attr unit bps
vector 14 TsnLinearNetwork.client.bridging.streamIdentifier.identifier flowIncomingPacketLengths:vector ETV
attr interpolationmode none
attr recordingmode vector
attr source "packetLength(demuxFlow(merge(packetPushedIn, packetPulledIn)))"
attr title "flow specific incoming packet lengths"
attr unit b
vector 15 TsnLinearNetwork.client.bridging.streamIdentifier.identifier flowIncomingDataRate:vector ETV
attr interpolationmode linear
attr recordingmode vector
attr source "throughput(demuxFlow(merge(packetPushedIn, packetPulledIn)))"
attr title "flow specific incoming data rate"
attr unit bps
vector 16 TsnLinearNetwork.client.bridging.streamIdentifier.identifier flowOutgoingPacketLengths:vector ETV
attr interpolationmode none
attr recordingmode vector
attr source "packetLength(demuxFlow(merge(packetPushedOut, packetPulledOut)))"
attr title "flow specific outgoing packet lengths"
attr unit b
vector 17 TsnLinearNetwork.client.bridging.streamIdentifier.identifier flowOutgoingDataRate:vector ETV
attr interpolationmode linear
attr recordingmode vector
attr source "throughput(demuxFlow(merge(packetPushedOut, packetPulledOut)))"
attr title "flow specific outgoing data rate"
attr unit bps
vector 18 TsnLinearNetwork.client.bridging.streamCoder.decoder incomingPacketLengths:vector ETV
attr interpolationmode none
attr recordingmode vector
attr source "packetLength(merge(packetPushedIn, packetPulledIn))"
attr title "incoming packet lengths"
attr unit b
vector 19 TsnLinearNetwork.client.bridging.streamCoder.decoder incomingDataRate:vector ETV
attr interpolationmode linear
attr recordingmode vector
attr source "throughput(merge(packetPushedIn, packetPulledIn))"
attr title "incoming data rate"
attr unit bps
vector 20 TsnLinearNetwork.client.bridging.streamCoder.decoder outgoingPacketLengths:vector ETV
attr interpolationmode none
attr recordingmode vector
attr source "packetLength(merge(packetPushedOut, packetPulledOut))"
attr title "outgoing packet lengths"
attr unit b
vector 21 TsnLinearNetwork.client.bridging.streamCoder.decoder outgoingDataRate:vector ETV
attr interpolationmode linear
attr recordingmode vector
attr source "throughput(merge(packetPushedOut, packetPulledOut))"
attr title "outgoing data rate"
attr unit bps
vector 22 TsnLinearNetwork.client.bridging.streamCoder.decoder flowIncomingPacketLengths:vector ETV
attr interpolationmode none
attr recordingmode vector
attr source "packetLength(demuxFlow(merge(packetPushedIn, packetPulledIn)))"
attr title "flow specific incoming packet lengths"
attr unit b
vector 23 TsnLinearNetwork.client.bridging.streamCoder.decoder flowIncomingDataRate:vector ETV
attr interpolationmode linear
attr recordingmode vector
attr source "throughput(demuxFlow(merge(packetPushedIn, packetPulledIn)))"
attr title "flow specific incoming data rate"
attr unit bps
vector 24 TsnLinearNetwork.client.bridging.streamCoder.decoder flowOutgoingPacketLengths:vector ETV
attr interpolationmode none
attr recordingmode vector
attr source "packetLength(demuxFlow(merge(packetPushedOut, packetPulledOut)))"
attr title "flow specific outgoing packet lengths"
attr unit b
vector 25 TsnLinearNetwork.client.bridging.streamCoder.decoder flowOutgoingDataRate:vector ETV
attr interpolationmode linear
attr recordingmode vector
attr source "throughput(demuxFlow(merge(packetPushedOut, packetPulledOut)))"
attr title "flow specific outgoing data rate"
attr unit bps
vector 26 TsnLinearNetwork.client.bridging.streamCoder.encoder incomingPacketLengths:vector ETV
attr interpolationmode none
attr recordingmode vector
attr source "packetLength(merge(packetPushedIn, packetPulledIn))"
attr title "incoming packet lengths"
attr unit b
vector 27 TsnLinearNetwork.client.bridging.streamCoder.encoder incomingDataRate:vector ETV
attr interpolationmode linear
attr recordingmode vector
attr source "throughput(merge(packetPushedIn, packetPulledIn))"
attr title "incoming data rate"
attr unit bps
vector 28 TsnLinearNetwork.client.bridging.streamCoder.encoder outgoingPacketLengths:vector ETV
attr interpolationmode none
attr recordingmode vector
attr source "packetLength(merge(packetPushedOut, packetPulledOut))"
attr title "outgoing packet lengths"
attr unit b
vector 29 TsnLinearNetwork.client.bridging.streamCoder.encoder outgoingDataRate:vector ETV
attr interpolationmode linear
attr recordingmode vector
attr source "throughput(merge(packetPushedOut, packetPulledOut))"
attr title "outgoing data rate"
attr unit bps
vector 30 TsnLinearNetwork.client.bridging.streamCoder.encoder flowIncomingPacketLengths:vector ETV
attr interpolationmode none
attr recordingmode vector
attr source "packetLength(demuxFlow(merge(packetPushedIn, packetPulledIn)))"
attr title "flow specific incoming packet lengths"
attr unit b
vector 31 TsnLinearNetwork.client.bridging.streamCoder.encoder flowIncomingDataRate:vector ETV
attr interpolationmode linear
attr recordingmode vector
attr source "throughput(demuxFlow(merge(packetPushedIn, packetPulledIn)))"
attr title "flow specific incoming data rate"
attr unit bps
vector 32 TsnLinearNetwork.client.bridging.streamCoder.encoder flowOutgoingPacketLengths:vector ETV
attr interpolationmode none
attr recordingmode vector
attr source "packetLength(demuxFlow(merge(packetPushedOut, packetPulledOut)))"
attr title "flow specific outgoing packet lengths"
attr unit b
vector 33 TsnLinearNetwork.client.bridging.streamCoder.encoder flowOutgoingDataRate:vector ETV
attr interpolationmode linear
attr recordingmode vector
attr source "throughput(demuxFlow(merge(packetPushedOut, packetPulledOut)))"
attr title "flow specific outgoing data rate"
attr unit bps
vector 34 TsnLinearNetwork.client.ethernet.macHeaderInserter incomingPacketLengths:vector ETV
attr interpolationmode none
attr recordingmode vector
attr source "packetLength(merge(packetPushedIn, packetPulledIn))"
attr title "incoming packet lengths"
attr unit b
vector 35 TsnLinearNetwork.client.ethernet.macHeaderInserter incomingDataRate:vector ETV
attr interpolationmode linear
attr recordingmode vector
attr source "throughput(merge(packetPushedIn, packetPulledIn))"
attr title "incoming data rate"
attr unit bps
vector 36 TsnLinearNetwork.client.ethernet.macHeaderInserter outgoingPacketLengths:vector ETV
attr interpolationmode none
attr recordingmode vector
attr source "packetLength(merge(packetPushedOut, packetPulledOut))"
attr title "outgoing packet lengths"
attr unit b
vector 37 TsnLinearNetwork.client.ethernet.macHeaderInserter outgoingDataRate:vector ETV
attr interpolationmode linear
attr recordingmode vector
attr source "throughput(merge(packetPushedOut, packetPulledOut))"
attr title "outgoing data rate"
attr unit bps
vector 38 TsnLinearNetwork.client.ethernet.macHeaderInserter flowIncomingPacketLengths:vector ETV
attr interpolationmode none
attr recordingmode vector
attr source "packetLength(demuxFlow(merge(packetPushedIn, packetPulledIn)))"
attr title "flow specific incoming packet lengths"
attr unit b
vector 39 TsnLinearNetwork.client.ethernet.macHeaderInserter flowIncomingDataRate:vector ETV
attr interpolationmode linear
attr recordingmode vector
attr source "throughput(demuxFlow(merge(packetPushedIn, packetPulledIn)))"
attr title "flow specific incoming data rate"
attr unit bps
vector 40 TsnLinearNetwork.client.ethernet.macHeaderInserter flowOutgoingPacketLengths:vector ETV
attr interpolationmode none
attr recordingmode vector
attr source "packetLength(demuxFlow(merge(packetPushedOut, packetPulledOut)))"
attr title "flow specific outgoing packet lengths"
attr unit b
vector 41 TsnLinearNetwork.client.ethernet.macHeaderInserter flowOutgoingDataRate:vector ETV
attr interpolationmode linear
attr recordingmode vector
attr source "throughput(demuxFlow(merge(packetPushedOut, packetPulledOut)))"
attr title "flow specific outgoing data rate"
attr unit bps
vector 42 TsnLinearNetwork.client.ethernet.paddingInserter incomingPacketLengths:vector ETV
attr interpolationmode none
attr recordingmode vector
attr source "packetLength(merge(packetPushedIn, packetPulledIn))"
attr title "incoming packet lengths"
attr unit b
vector 43 TsnLinearNetwork.client.ethernet.paddingInserter incomingDataRate:vector ETV
attr interpolationmode linear
attr recordingmode vector
attr source "throughput(merge(packetPushedIn, packetPulledIn))"
attr title "incoming data rate"
attr unit bps
vector 44 TsnLinearNetwork.client.ethernet.paddingInserter outgoingPacketLengths:vector ETV
attr interpolationmode none
attr recordingmode vector
attr source "packetLength(merge(packetPushedOut, packetPulledOut))"
attr title "outgoing packet lengths"
attr unit b
vector 45 TsnLinearNetwork.client.ethernet.paddingInserter outgoingDataRate:vector ETV
attr interpolationmode linear
attr recordingmode vector
attr source "throughput(merge(packetPushedOut, packetPulledOut))"
attr title "outgoing data rate"
attr unit bps
vector 46 TsnLinearNetwork.client.ethernet.paddingInserter flowIncomingPacketLengths:vector ETV
attr interpolationmode none
attr recordingmode vector
attr source "packetLength(demuxFlow(merge(packetPushedIn, packetPulledIn)))"
attr title "flow specific incoming packet lengths"
attr unit b
vector 47 TsnLinearNetwork.client.ethernet.paddingInserter flowIncomingDataRate:vector ETV
attr interpolationmode linear
attr recordingmode vector
attr source "throughput(demuxFlow(merge(packetPushedIn, packetPulledIn)))"
attr title "flow specific incoming data rate"
attr unit bps
vector 48 TsnLinearNetwork.client.ethernet.paddingInserter flowOutgoingPacketLengths:vector ETV
attr interpolationmode none
attr recordingmode vector
attr source "packetLength(demuxFlow(merge(packetPushedOut, packetPulledOut)))"
attr title "flow specific outgoing packet lengths"
attr unit b
vector 49 TsnLinearNetwork.client.ethernet.paddingInserter flowOutgoingDataRate:vector ETV
attr interpolationmode linear
attr recordingmode vector
attr source "throughput(demuxFlow(merge(packetPushedOut, packetPulledOut)))"
attr title "flow specific outgoing data rate"
attr unit bps
vector 50 TsnLinearNetwork.client.ethernet.fcsInserter incomingPacketLengths:vector ETV
attr interpolationmode none
attr recordingmode vector
attr source "packetLength(merge(packetPushedIn, packetPulledIn))"
attr title "incoming packet lengths"
attr unit b
vector 51 TsnLinearNetwork.client.ethernet.fcsInserter incomingDataRate:vector ETV
attr interpolationmode linear
attr recordingmode vector
attr source "throughput(merge(packetPushedIn, packetPulledIn))"
attr title "incoming data rate"
attr unit bps
vector 52 TsnLinearNetwork.client.ethernet.fcsInserter outgoingPacketLengths:vector ETV
attr interpolationmode none
attr recordingmode vector
attr source "packetLength(merge(packetPushedOut, packetPulledOut))"
attr title "outgoing packet lengths"
attr unit b
vector 53 TsnLinearNetwork.client.ethernet.fcsInserter outgoingDataRate:vector ETV
attr interpolationmode linear
attr recordingmode vector
attr source "throughput(merge(packetPushedOut, packetPulledOut))"
attr title "outgoing data rate"
attr unit bps
vector 54 TsnLinearNetwork.client.ethernet.fcsInserter flowIncomingPacketLengths:vector ETV
attr interpolationmode none
attr recordingmode vector
attr source "packetLength(demuxFlow(merge(packetPushedIn, packetPulledIn)))"
attr title "flow specific incoming packet lengths"
attr unit b
vector 55 TsnLinearNetwork.client.ethernet.fcsInserter flowIncomingDataRate:vector ETV
attr interpolationmode linear
attr recordingmode vector
attr source "throughput(demuxFlow(merge(packetPushedIn, packetPulledIn)))"
attr title "flow specific incoming data rate"
attr unit bps
vector 56 TsnLinearNetwork.client.ethernet.fcsInserter flowOutgoingPacketLengths:vector ETV
attr interpolationmode none
attr recordingmode vector
attr source "packetLength(demuxFlow(merge(packetPushedOut, packetPulledOut)))"
attr title "flow specific outgoing packet lengths"
attr unit b
vector 57 TsnLinearNetwork.client.ethernet.fcsInserter flowOutgoingDataRate:vector ETV
attr interpolationmode linear
attr recordingmode vector
attr source "throughput(demuxFlow(merge(packetPushedOut, packetPulledOut)))"
attr title "flow specific outgoing data rate"
attr unit bps
vector 58 TsnLinearNetwork.client.ethernet.macHeaderChecker incomingPacketLengths:vector ETV
attr interpolationmode none
attr recordingmode vector
attr source "packetLength(merge(packetPushedIn, packetPulledIn))"
attr title "incoming packet lengths"
attr unit b
vector 59 TsnLinearNetwork.client.ethernet.macHeaderChecker incomingDataRate:vector ETV
attr interpolationmode linear
attr recordingmode vector
attr source "throughput(merge(packetPushedIn, packetPulledIn))"
attr title "incoming data rate"
attr unit bps
vector 60 TsnLinearNetwork.client.ethernet.macHeaderChecker outgoingPacketLengths:vector ETV
attr interpolationmode none
attr recordingmode vector
attr source "packetLength(merge(packetPushedOut, packetPulledOut))"
attr title "outgoing packet lengths"
attr unit b
vector 61 TsnLinearNetwork.client.ethernet.macHeaderChecker outgoingDataRate:vector ETV
attr interpolationmode linear
attr recordingmode vector
attr source "throughput(merge(packetPushedOut, packetPulledOut))"
attr title "outgoing data rate"
attr unit bps
vector 62 TsnLinearNetwork.client.ethernet.macHeaderChecker droppedPacketLengths:vector ETV
attr interpolationmode none
attr recordingmode vector
attr source packetLength(packetDropped)
attr title "dropped packet lengths"
attr unit b
vector 63 TsnLinearNetwork.client.ethernet.macHeaderChecker droppedDataRate:vector ETV
attr interpolationmode linear
attr recordingmode vector
attr source throughput(packetDropped)
attr title "dropped data rate"
attr unit bps
vector 64 TsnLinearNetwork.client.ethernet.macHeaderChecker flowIncomingPacketLengths:vector ETV
attr interpolationmode none
attr recordingmode vector
attr source "packetLength(demuxFlow(merge(packetPushedIn, packetPulledIn)))"
attr title "flow specific incoming packet lengths"
attr unit b
vector 65 TsnLinearNetwork.client.ethernet.macHeaderChecker flowIncomingDataRate:vector ETV
attr interpolationmode linear
attr recordingmode vector
attr source "throughput(demuxFlow(merge(packetPushedIn, packetPulledIn)))"
attr title "flow specific incoming data rate"
attr unit bps
vector 66 TsnLinearNetwork.client.ethernet.macHeaderChecker flowOutgoingPacketLengths:vector ETV
attr interpolationmode none
attr recordingmode vector
attr source "packetLength(demuxFlow(merge(packetPushedOut, packetPulledOut)))"
attr title "flow specific outgoing packet lengths"
attr unit b
vector 67 TsnLinearNetwork.client.ethernet.macHeaderChecker flowOutgoingDataRate:vector ETV
attr interpolationmode linear
attr recordingmode vector
attr source "throughput(demuxFlow(merge(packetPushedOut, packetPulledOut)))"
attr title "flow specific outgoing data rate"
attr unit bps
vector 68 TsnLinearNetwork.client.ethernet.macHeaderChecker flowDroppedPacketLengths:vector ETV
attr interpolationmode none
attr recordingmode vector
attr source packetLength(demuxFlow(packetDropped))
attr title "flow specific dropped packet lengths"
attr unit b
vector 69 TsnLinearNetwork.client.ethernet.macHeaderChecker flowDroppedDataRate:vector ETV
attr interpolationmode linear
attr recordingmode vector
attr source throughput(demuxFlow(packetDropped))
attr title "flow specific dropped data rate"
attr unit bps
vector 70 TsnLinearNetwork.client.ethernet.fcsChecker incomingPacketLengths:vector ETV
attr interpolationmode none
attr recordingmode vector
attr source "packetLength(merge(packetPushedIn, packetPulledIn))"
attr title "incoming packet lengths"
attr unit b
vector 71 TsnLinearNetwork.client.ethernet.fcsChecker incomingDataRate:vector ETV
attr interpolationmode linear
attr recordingmode vector
attr source "throughput(merge(packetPushedIn, packetPulledIn))"
attr title "incoming data rate"
attr unit bps
vector 72 TsnLinearNetwork.client.ethernet.fcsChecker outgoingPacketLengths:vector ETV
attr interpolationmode none
attr recordingmode vector
attr source "packetLength(merge(packetPushedOut, packetPulledOut))"
attr title "outgoing packet lengths"
attr unit b
vector 73 TsnLinearNetwork.client.ethernet.fcsChecker outgoingDataRate:vector ETV
attr interpolationmode linear
attr recordingmode vector
attr source "throughput(merge(packetPushedOut, packetPulledOut))"
attr title "outgoing data rate"
attr unit bps
vector 74 TsnLinearNetwork.client.ethernet.fcsChecker droppedPacketLengths:vector ETV
attr interpolationmode none
attr recordingmode vector
attr source packetLength(packetDropped)
attr title "dropped packet lengths"
attr unit b
vector 75 TsnLinearNetwork.client.ethernet.fcsChecker droppedDataRate:vector ETV
attr interpolationmode linear
attr recordingmode vector
attr source throughput(packetDropped)
attr title "dropped data rate"
attr unit bps
vector 76 TsnLinearNetwork.client.ethernet.fcsChecker flowIncomingPacketLengths:vector ETV
attr interpolationmode none
attr recordingmode vector
attr source "packetLength(demuxFlow(merge(packetPushedIn, packetPulledIn)))"
attr title "flow specific incoming packet lengths"
attr unit b
vector 77 TsnLinearNetwork.client.ethernet.fcsChecker flowIncomingDataRate:vector ETV
attr interpolationmode linear
attr recordingmode vector
attr source "throughput(demuxFlow(merge(packetPushedIn, packetPulledIn)))"
attr title "flow specific incoming data rate"
attr unit bps
vector 78 TsnLinearNetwork.client.ethernet.fcsChecker flowOutgoingPacketLengths:vector ETV
attr interpolationmode none
attr recordingmode vector
attr source "packetLength(demuxFlow(merge(packetPushedOut, packetPulledOut)))"
attr title "flow specific outgoing packet lengths"
attr unit b
vector 79 TsnLinearNetwork.client.ethernet.fcsChecker flowOutgoingDataRate:vector ETV
attr interpolationmode linear
attr recordingmode vector
attr source "throughput(demuxFlow(merge(packetPushedOut, packetPulledOut)))"
attr title "flow specific outgoing data rate"
attr unit bps
vector 80 TsnLinearNetwork.client.ethernet.fcsChecker flowDroppedPacketLengths:vector ETV
attr interpolationmode none
attr recordingmode vector
attr source packetLength(demuxFlow(packetDropped))
attr title "flow specific dropped packet lengths"
attr unit b
vector 81 TsnLinearNetwork.client.ethernet.fcsChecker flowDroppedDataRate:vector ETV
attr interpolationmode linear
attr recordingmode vector
attr source throughput(demuxFlow(packetDropped))
attr title "flow specific dropped data rate"
attr unit bps
vector 82 TsnLinearNetwork.client.ieee8021q.qTagHeaderInserter incomingPacketLengths:vector ETV
attr interpolationmode none
attr recordingmode vector
attr source "packetLength(merge(packetPushedIn, packetPulledIn))"
attr title "incoming packet lengths"
attr unit b
vector 83 TsnLinearNetwork.client.ieee8021q.qTagHeaderInserter incomingDataRate:vector ETV
attr interpolationmode linear
attr recordingmode vector
attr source "throughput(merge(packetPushedIn, packetPulledIn))"
attr title "incoming data rate"
attr unit bps
vector 84 TsnLinearNetwork.client.ieee8021q.qTagHeaderInserter outgoingPacketLengths:vector ETV
attr interpolationmode none
attr recordingmode vector
attr source "packetLength(merge(packetPushedOut, packetPulledOut))"
attr title "outgoing packet lengths"
attr unit b
vector 85 TsnLinearNetwork.client.ieee8021q.qTagHeaderInserter outgoingDataRate:vector ETV
attr interpolationmode linear
attr recordingmode vector
attr source "throughput(merge(packetPushedOut, packetPulledOut))"
attr title "outgoing data rate"
attr unit bps
vector 86 TsnLinearNetwork.client.ieee8021q.qTagHeaderInserter flowIncomingPacketLengths:vector ETV
attr interpolationmode none
attr recordingmode vector
attr source "packetLength(demuxFlow(merge(packetPushedIn, packetPulledIn)))"
attr title "flow specific incoming packet lengths"
attr unit b
vector 87 TsnLinearNetwork.client.ieee8021q.qTagHeaderInserter flowIncomingDataRate:vector ETV
attr interpolationmode linear
attr recordingmode vector
attr source "throughput(demuxFlow(merge(packetPushedIn, packetPulledIn)))"
attr title "flow specific incoming data rate"
attr unit bps
vector 88 TsnLinearNetwork.client.ieee8021q.qTagHeaderInserter flowOutgoingPacketLengths:vector ETV
attr interpolationmode none
attr recordingmode vector
attr source "packetLength(demuxFlow(merge(packetPushedOut, packetPulledOut)))"
attr title "flow specific outgoing packet lengths"
attr unit b
vector 89 TsnLinearNetwork.client.ieee8021q.qTagHeaderInserter flowOutgoingDataRate:vector ETV
attr interpolationmode linear
attr recordingmode vector
attr source "throughput(demuxFlow(merge(packetPushedOut, packetPulledOut)))"
attr title "flow specific outgoing data rate"
attr unit bps
vector 90 TsnLinearNetwork.client.ieee8021q.qTagHeaderChecker incomingPacketLengths:vector ETV
attr interpolationmode none
attr recordingmode vector
attr source "packetLength(merge(packetPushedIn, packetPulledIn))"
attr title "incoming packet lengths"
attr unit b
vector 91 TsnLinearNetwork.client.ieee8021q.qTagHeaderChecker incomingDataRate:vector ETV
attr interpolationmode linear
attr recordingmode vector
attr source "throughput(merge(packetPushedIn, packetPulledIn))"
attr title "incoming data rate"
attr unit bps
vector 92 TsnLinearNetwork.client.ieee8021q.qTagHeaderChecker outgoingPacketLengths:vector ETV
attr interpolationmode none
attr recordingmode vector
attr source "packetLength(merge(packetPushedOut, packetPulledOut))"
attr title "outgoing packet lengths"
attr unit b
vector 93 TsnLinearNetwork.client.ieee8021q.qTagHeaderChecker outgoingDataRate:vector ETV
attr interpolationmode linear
attr recordingmode vector
attr source "throughput(merge(packetPushedOut, packetPulledOut))"
attr title "outgoing data rate"
attr unit bps
vector 94 TsnLinearNetwork.client.ieee8021q.qTagHeaderChecker droppedPacketLengths:vector ETV
attr interpolationmode none
attr recordingmode vector
attr source packetLength(packetDropped)
attr title "dropped packet lengths"
attr unit b
vector 95 TsnLinearNetwork.client.ieee8021q.qTagHeaderChecker droppedDataRate:vector ETV
attr interpolationmode linear
attr recordingmode vector
attr source throughput(packetDropped)
attr title "dropped data rate"
attr unit bps
vector 96 TsnLinearNetwork.client.ieee8021q.qTagHeaderChecker flowIncomingPacketLengths:vector ETV
attr interpolationmode none
attr recordingmode vector
attr source "packetLength(demuxFlow(merge(packetPushedIn, packetPulledIn)))"
attr title "flow specific incoming packet lengths"
attr unit b
vector 97 TsnLinearNetwork.client.ieee8021q.qTagHeaderChecker flowIncomingDataRate:vector ETV
attr interpolationmode linear
attr recordingmode vector
attr source "throughput(demuxFlow(merge(packetPushedIn, packetPulledIn)))"
attr title "flow specific incoming data rate"
attr unit bps
vector 98 TsnLinearNetwork.client.ieee8021q.qTagHeaderChecker flowOutgoingPacketLengths:vector ETV
attr interpolationmode none
attr recordingmode vector
attr source "packetLength(demuxFlow(merge(packetPushedOut, packetPulledOut)))"
attr title "flow specific outgoing packet lengths"
attr unit b
vector 99 TsnLinearNetwork.client.ieee8021q.qTagHeaderChecker flowOutgoingDataRate:vector ETV
attr interpolationmode linear
attr recordingmode vector
attr source "throughput(demuxFlow(merge(packetPushedOut, packetPulledOut)))"
attr title "flow specific outgoing data rate"
attr unit bps
vector 100 TsnLinearNetwork.client.ieee8021q.qTagHeaderChecker flowDroppedPacketLengths:vector ETV
attr interpolationmode none
attr recordingmode vector
attr source packetLength(demuxFlow(packetDropped))
attr title "flow specific dropped packet lengths"
attr unit b
vector 101 TsnLinearNetwork.client.ieee8021q.qTagHeaderChecker flowDroppedDataRate:vector ETV
attr interpolationmode linear
attr recordingmode vector
attr source throughput(demuxFlow(packetDropped))
attr title "flow specific dropped data rate"
attr unit bps
vector 102 TsnLinearNetwork.client.lo[0].lo rcvdPkFromHl:vector(packetBytes) ETV
attr interpolationmode none
attr recordingmode vector(packetBytes)
attr source packetReceivedFromUpper
attr title "packets received from higher layer, packetBytes"
vector 103 TsnLinearNetwork.client.lo[0].lo passedUpPk:vector(packetBytes) ETV
attr interpolationmode none
attr recordingmode vector(packetBytes)
attr source packetSentToUpper
attr title "packets passed to higher layer, packetBytes"
vector 104 TsnLinearNetwork.client.lo[0] packetDropInterfaceDown:vector(packetBytes) ETV
attr interpolationmode none
attr recordingmode vector(packetBytes)
attr source packetDropReasonIsInterfaceDown(packetDropped)
attr title "packet drops: interface down, packetBytes"
vector 105 TsnLinearNetwork.client.lo[0] packetDropNoCarrier:vector(packetBytes) ETV
attr interpolationmode none
attr recordingmode vector(packetBytes)
attr source packetDropReasonIsNoCarrier(packetDropped)
attr title "packet drops: no carrier, packetBytes"
vector 106 TsnLinearNetwork.client.eth[0].macLayer.queue queueLength:vector ETV
attr autoWarmupFilter false
attr interpolationmode sample-hold
attr recordingmode vector
attr source "warmup(atomic(constant0(packetPushEnded) + count(packetPushStarted) - count(packetPulled) - count(packetRemoved) - count(packetDropped)))"
attr title "queue length"
attr unit pk
vector 107 TsnLinearNetwork.client.eth[0].macLayer.queue queueBitLength:vector ETV
attr autoWarmupFilter false
attr interpolationmode sample-hold
attr recordingmode vector
attr source "warmup(atomic(constant0(packetPushEnded) + sum(packetLength(packetPushStarted)) - sum(packetLength(packetPulled)) - sum(packetLength(packetRemoved)) - sum(packetLength(packetDropped))))"
attr title "queue bit length"
attr unit b
vector 108 TsnLinearNetwork.client.eth[0].macLayer.queue queueingTime:vector ETV
attr interpolationmode none
attr recordingmode vector
attr source queueingTime(packetPulled)
attr title "queueing times"
attr unit s
vector 109 TsnLinearNetwork.client.eth[0].macLayer.queue incomingPacketLengths:vector ETV
attr interpolationmode none
attr recordingmode vector
attr source packetLength(packetPushStarted)
attr title "incoming packet lengths"
attr unit b
vector 110 TsnLinearNetwork.client.eth[0].macLayer.queue incomingDataRate:vector ETV
attr interpolationmode linear
attr recordingmode vector
attr source throughput(packetPushStarted)
attr title "incoming datarate"
attr unit bps
vector 111 TsnLinearNetwork.client.eth[0].macLayer.queue outgoingPacketLengths:vector ETV
attr interpolationmode none
attr recordingmode vector
attr source packetLength(packetPulled)
attr title "outgoing packet lengths"
attr unit b
vector 112 TsnLinearNetwork.client.eth[0].macLayer.queue outgoingDataRate:vector ETV
attr interpolationmode linear
attr recordingmode vector
attr source throughput(packetPulled)
attr title "outgoing datarate"
attr unit bps
vector 113 TsnLinearNetwork.client.eth[0].macLayer.queue droppedPacketLengthsQueueOverflow:vector ETV
attr interpolationmode none
attr recordingmode vector
attr source packetLength(packetDropReasonIsQueueOverflow(packetDropped))
attr title "dropped packet lengths: queue overflow"
attr unit b
vector 114 TsnLinearNetwork.client.eth[0].macLayer.queue flowQueueingTime:vector ETV
attr interpolationmode none
attr recordingmode vector
attr source queueingTime(demuxFlow(packetPulled))
attr title "flow queueing times"
attr unit s
vector 115 TsnLinearNetwork.client.eth[0].macLayer.queue flowIncomingDataRate:vector ETV
attr interpolationmode linear
attr recordingmode vector
attr source throughput(flowPacketLength(demuxFlow(packetPushStarted)))
attr title "flow specific incoming data rate"
attr unit bps
vector 116 TsnLinearNetwork.client.eth[0].macLayer.queue flowOutgoingDataRate:vector ETV
attr interpolationmode linear
attr recordingmode vector
attr source throughput(flowPacketLength(demuxFlow(packetPulled)))
attr title "flow specific outgoing data rate"
attr unit bps
vector 117 TsnLinearNetwork.client.eth[0].macLayer.server incomingPacketLengths:vector ETV
attr interpolationmode none
attr recordingmode vector
attr source packetLength(packetPulled)
attr title "incoming packet lengths"
attr unit b
vector 118 TsnLinearNetwork.client.eth[0].macLayer.server incomingDataRate:vector ETV
attr interpolationmode linear
attr recordingmode vector
attr source throughput(packetPulled)
attr title "incoming datarate"
attr unit bps
vector 119 TsnLinearNetwork.client.eth[0].macLayer.server outgoingPacketLengths:vector ETV
attr interpolationmode none
attr recordingmode vector
attr source packetLength(packetPushed)
attr title "outgoing packet lengths"
attr unit b
vector 120 TsnLinearNetwork.client.eth[0].macLayer.server outgoingDataRate:vector ETV
attr interpolationmode linear
attr recordingmode vector
attr source throughput(packetPushed)
attr title "outgoing datarate"
attr unit bps
vector 121 TsnLinearNetwork.client.eth[0].macLayer.outboundEmitter incomingPacketLengths:vector ETV
attr interpolationmode none
attr recordingmode vector
attr source "packetLength(merge(packetPushedIn, packetPulledIn))"
attr title "incoming packet lengths"
attr unit b
vector 122 TsnLinearNetwork.client.eth[0].macLayer.outboundEmitter incomingDataRate:vector ETV
attr interpolationmode linear
attr recordingmode vector
attr source "throughput(merge(packetPushedIn, packetPulledIn))"
attr title "incoming data rate"
attr unit bps
vector 123 TsnLinearNetwork.client.eth[0].macLayer.outboundEmitter outgoingPacketLengths:vector ETV
attr interpolationmode none
attr recordingmode vector
attr source "packetLength(merge(packetPushedOut, packetPulledOut))"
attr title "outgoing packet lengths"
attr unit b
vector 124 TsnLinearNetwork.client.eth[0].macLayer.outboundEmitter outgoingDataRate:vector ETV
attr interpolationmode linear
attr recordingmode vector
attr source "throughput(merge(packetPushedOut, packetPulledOut))"
attr title "outgoing data rate"
attr unit bps
vector 125 TsnLinearNetwork.client.eth[0].macLayer.outboundEmitter flowIncomingPacketLengths:vector ETV
attr interpolationmode none
attr recordingmode vector
attr source "packetLength(demuxFlow(merge(packetPushedIn, packetPulledIn)))"
attr title "flow specific incoming packet lengths"
attr unit b
vector 126 TsnLinearNetwork.client.eth[0].macLayer.outboundEmitter flowIncomingDataRate:vector ETV
attr interpolationmode linear
attr recordingmode vector
attr source "throughput(demuxFlow(merge(packetPushedIn, packetPulledIn)))"
attr title "flow specific incoming data rate"
attr unit bps
vector 127 TsnLinearNetwork.client.eth[0].macLayer.outboundEmitter flowOutgoingPacketLengths:vector ETV
attr interpolationmode none
attr recordingmode vector
attr source "packetLength(demuxFlow(merge(packetPushedOut, packetPulledOut)))"
attr title "flow specific outgoing packet lengths"
attr unit b
vector 128 TsnLinearNetwork.client.eth[0].macLayer.outboundEmitter flowOutgoingDataRate:vector ETV
attr interpolationmode linear
attr recordingmode vector
attr source "throughput(demuxFlow(merge(packetPushedOut, packetPulledOut)))"
attr title "flow specific outgoing data rate"
attr unit bps
vector 129 TsnLinearNetwork.client.eth[0].macLayer.fcsChecker incomingPacketLengths:vector ETV
attr interpolationmode none
attr recordingmode vector
attr source "packetLength(merge(packetPushedIn, packetPulledIn))"
attr title "incoming packet lengths"
attr unit b
vector 130 TsnLinearNetwork.client.eth[0].macLayer.fcsChecker incomingDataRate:vector ETV
attr interpolationmode linear
attr recordingmode vector
attr source "throughput(merge(packetPushedIn, packetPulledIn))"
attr title "incoming data rate"
attr unit bps
vector 131 TsnLinearNetwork.client.eth[0].macLayer.fcsChecker outgoingPacketLengths:vector ETV
attr interpolationmode none
attr recordingmode vector
attr source "packetLength(merge(packetPushedOut, packetPulledOut))"
attr title "outgoing packet lengths"
attr unit b
vector 132 TsnLinearNetwork.client.eth[0].macLayer.fcsChecker outgoingDataRate:vector ETV
attr interpolationmode linear
attr recordingmode vector
attr source "throughput(merge(packetPushedOut, packetPulledOut))"
attr title "outgoing data rate"
attr unit bps
vector 133 TsnLinearNetwork.client.eth[0].macLayer.fcsChecker droppedPacketLengths:vector ETV
attr interpolationmode none
attr recordingmode vector
attr source packetLength(packetDropped)
attr title "dropped packet lengths"
attr unit b
vector 134 TsnLinearNetwork.client.eth[0].macLayer.fcsChecker droppedDataRate:vector ETV
attr interpolationmode linear
attr recordingmode vector
attr source throughput(packetDropped)
attr title "dropped data rate"
attr unit bps
vector 135 TsnLinearNetwork.client.eth[0].macLayer.fcsChecker flowIncomingPacketLengths:vector ETV
attr interpolationmode none
attr recordingmode vector
attr source "packetLength(demuxFlow(merge(packetPushedIn, packetPulledIn)))"
attr title "flow specific incoming packet lengths"
attr unit b
vector 136 TsnLinearNetwork.client.eth[0].macLayer.fcsChecker flowIncomingDataRate:vector ETV
attr interpolationmode linear
attr recordingmode vector
attr source "throughput(demuxFlow(merge(packetPushedIn, packetPulledIn)))"
attr title "flow specific incoming data rate"
attr unit bps
vector 137 TsnLinearNetwork.client.eth[0].macLayer.fcsChecker flowOutgoingPacketLengths:vector ETV
attr interpolationmode none
attr recordingmode vector
attr source "packetLength(demuxFlow(merge(packetPushedOut, packetPulledOut)))"
attr title "flow specific outgoing packet lengths"
attr unit b
vector 138 TsnLinearNetwork.client.eth[0].macLayer.fcsChecker flowOutgoingDataRate:vector ETV
attr interpolationmode linear
attr recordingmode vector
attr source "throughput(demuxFlow(merge(packetPushedOut, packetPulledOut)))"
attr title "flow specific outgoing data rate"
attr unit bps
vector 139 TsnLinearNetwork.client.eth[0].macLayer.fcsChecker flowDroppedPacketLengths:vector ETV
attr interpolationmode none
attr recordingmode vector
attr source packetLength(demuxFlow(packetDropped))
attr title "flow specific dropped packet lengths"
attr unit b
vector 140 TsnLinearNetwork.client.eth[0].macLayer.fcsChecker flowDroppedDataRate:vector ETV
attr interpolationmode linear
attr recordingmode vector
attr source throughput(demuxFlow(packetDropped))
attr title "flow specific dropped data rate"
attr unit bps
vector 141 TsnLinearNetwork.client.eth[0].macLayer.inboundEmitter incomingPacketLengths:vector ETV
attr interpolationmode none
attr recordingmode vector
attr source "packetLength(merge(packetPushedIn, packetPulledIn))"
attr title "incoming packet lengths"
attr unit b
vector 142 TsnLinearNetwork.client.eth[0].macLayer.inboundEmitter incomingDataRate:vector ETV
attr interpolationmode linear
attr recordingmode vector
attr source "throughput(merge(packetPushedIn, packetPulledIn))"
attr title "incoming data rate"
attr unit bps
vector 143 TsnLinearNetwork.client.eth[0].macLayer.inboundEmitter outgoingPacketLengths:vector ETV
attr interpolationmode none
attr recordingmode vector
attr source "packetLength(merge(packetPushedOut, packetPulledOut))"
attr title "outgoing packet lengths"
attr unit b
vector 144 TsnLinearNetwork.client.eth[0].macLayer.inboundEmitter outgoingDataRate:vector ETV
attr interpolationmode linear
attr recordingmode vector
attr source "throughput(merge(packetPushedOut, packetPulledOut))"
attr title "outgoing data rate"
attr unit bps
vector 145 TsnLinearNetwork.client.eth[0].macLayer.inboundEmitter flowIncomingPacketLengths:vector ETV
attr interpolationmode none
attr recordingmode vector
attr source "packetLength(demuxFlow(merge(packetPushedIn, packetPulledIn)))"
attr title "flow specific incoming packet lengths"
attr unit b
vector 146 TsnLinearNetwork.client.eth[0].macLayer.inboundEmitter flowIncomingDataRate:vector ETV
attr interpolationmode linear
attr recordingmode vector
attr source "throughput(demuxFlow(merge(packetPushedIn, packetPulledIn)))"
attr title "flow specific incoming data rate"
attr unit bps
vector 147 TsnLinearNetwork.client.eth[0].macLayer.inboundEmitter flowOutgoingPacketLengths:vector ETV
attr interpolationmode none
attr recordingmode vector
attr source "packetLength(demuxFlow(merge(packetPushedOut, packetPulledOut)))"
attr title "flow specific outgoing packet lengths"
attr unit b
vector 148 TsnLinearNetwork.client.eth[0].macLayer.inboundEmitter flowOutgoingDataRate:vector ETV
attr interpolationmode linear
attr recordingmode vector
attr source "throughput(demuxFlow(merge(packetPushedOut, packetPulledOut)))"
attr title "flow specific outgoing data rate"
attr unit bps
vector 149 TsnLinearNetwork.client.eth[0].phyLayer.phyHeaderInserter incomingPacketLengths:vector ETV
attr interpolationmode none
attr recordingmode vector
attr source "packetLength(merge(packetPushedIn, packetPulledIn))"
attr title "incoming packet lengths"
attr unit b
vector 150 TsnLinearNetwork.client.eth[0].phyLayer.phyHeaderInserter incomingDataRate:vector ETV
attr interpolationmode linear
attr recordingmode vector
attr source "throughput(merge(packetPushedIn, packetPulledIn))"
attr title "incoming data rate"
attr unit bps
vector 151 TsnLinearNetwork.client.eth[0].phyLayer.phyHeaderInserter outgoingPacketLengths:vector ETV
attr interpolationmode none
attr recordingmode vector
attr source "packetLength(merge(packetPushedOut, packetPulledOut))"
attr title "outgoing packet lengths"
attr unit b
vector 152 TsnLinearNetwork.client.eth[0].phyLayer.phyHeaderInserter outgoingDataRate:vector ETV
attr interpolationmode linear
attr recordingmode vector
attr source "throughput(merge(packetPushedOut, packetPulledOut))"
attr title "outgoing data rate"
attr unit bps
vector 153 TsnLinearNetwork.client.eth[0].phyLayer.phyHeaderInserter flowIncomingPacketLengths:vector ETV
attr interpolationmode none
attr recordingmode vector
attr source "packetLength(demuxFlow(merge(packetPushedIn, packetPulledIn)))"
attr title "flow specific incoming packet lengths"
attr unit b
vector 154 TsnLinearNetwork.client.eth[0].phyLayer.phyHeaderInserter flowIncomingDataRate:vector ETV
attr interpolationmode linear
attr recordingmode vector
attr source "throughput(demuxFlow(merge(packetPushedIn, packetPulledIn)))"
attr title "flow specific incoming data rate"
attr unit bps
vector 155 TsnLinearNetwork.client.eth[0].phyLayer.phyHeaderInserter flowOutgoingPacketLengths:vector ETV
attr interpolationmode none
attr recordingmode vector
attr source "packetLength(demuxFlow(merge(packetPushedOut, packetPulledOut)))"
attr title "flow specific outgoing packet lengths"
attr unit b
vector 156 TsnLinearNetwork.client.eth[0].phyLayer.phyHeaderInserter flowOutgoingDataRate:vector ETV
attr interpolationmode linear
attr recordingmode vector
attr source "throughput(demuxFlow(merge(packetPushedOut, packetPulledOut)))"
attr title "flow specific outgoing data rate"
attr unit bps
vector 157 TsnLinearNetwork.client.eth[0].phyLayer.interFrameGapInserter interpacketGap:vector ETV
attr interpolationmode sample-hold
attr recordingmode vector
attr source "count(interpacketGapStarted) - count(interpacketGapEnded)"
attr title "interpacket gap state"
attr type int
vector 158 TsnLinearNetwork.client.eth[0].phyLayer.outboundEmitter incomingPacketLengths:vector ETV
attr interpolationmode none
attr recordingmode vector
attr source "packetLength(merge(packetPushedIn, packetPulledIn))"
attr title "incoming packet lengths"
attr unit b
vector 159 TsnLinearNetwork.client.eth[0].phyLayer.outboundEmitter incomingDataRate:vector ETV
attr interpolationmode linear
attr recordingmode vector
attr source "throughput(merge(packetPushedIn, packetPulledIn))"
attr title "incoming data rate"
attr unit bps
vector 160 TsnLinearNetwork.client.eth[0].phyLayer.outboundEmitter outgoingPacketLengths:vector ETV
attr interpolationmode none
attr recordingmode vector
attr source "packetLength(merge(packetPushedOut, packetPulledOut))"
attr title "outgoing packet lengths"
attr unit b
vector 161 TsnLinearNetwork.client.eth[0].phyLayer.outboundEmitter outgoingDataRate:vector ETV
attr interpolationmode linear
attr recordingmode vector
attr source "throughput(merge(packetPushedOut, packetPulledOut))"
attr title "outgoing data rate"
attr unit bps
vector 162 TsnLinearNetwork.client.eth[0].phyLayer.outboundEmitter flowIncomingPacketLengths:vector ETV
attr interpolationmode none
attr recordingmode vector
attr source "packetLength(demuxFlow(merge(packetPushedIn, packetPulledIn)))"
attr title "flow specific incoming packet lengths"
attr unit b
vector 163 TsnLinearNetwork.client.eth[0].phyLayer.outboundEmitter flowIncomingDataRate:vector ETV
attr interpolationmode linear
attr recordingmode vector
attr source "throughput(demuxFlow(merge(packetPushedIn, packetPulledIn)))"
attr title "flow specific incoming data rate"
attr unit bps
vector 164 TsnLinearNetwork.client.eth[0].phyLayer.outboundEmitter flowOutgoingPacketLengths:vector ETV
attr interpolationmode none
attr recordingmode vector
attr source "packetLength(demuxFlow(merge(packetPushedOut, packetPulledOut)))"
attr title "flow specific outgoing packet lengths"
attr unit b
vector 165 TsnLinearNetwork.client.eth[0].phyLayer.outboundEmitter flowOutgoingDataRate:vector ETV
attr interpolationmode linear
attr recordingmode vector
attr source "throughput(demuxFlow(merge(packetPushedOut, packetPulledOut)))"
attr title "flow specific outgoing data rate"
attr unit bps
vector 166 TsnLinearNetwork.client.eth[0].phyLayer.transmitter transmitting:vector ETV
attr interpolationmode sample-hold
attr recordingmode vector
attr source "count(transmissionStarted) - count(transmissionEnded)"
attr title "transmitting state"
attr type int
vector 167 TsnLinearNetwork.client.eth[0].phyLayer.transmitter throughput:vector ETV
attr interpolationmode linear
attr recordingmode vector
attr source throughput(transmissionEnded)
attr title throughput
attr unit bps
vector 168 TsnLinearNetwork.client.eth[0].phyLayer.transmitter utilization:vector ETV
attr interpolationmode linear
attr recordingmode vector
attr source "100 * utilization(count(transmissionStarted) - count(transmissionEnded))"
attr title utilization
attr unit %
vector 169 TsnLinearNetwork.client.eth[0].phyLayer.transmitter transmissionTime:vector ETV
attr interpolationmode none
attr recordingmode vector
attr source packetDuration(transmissionEnded)
attr title "transmission time"
attr unit s
vector 170 TsnLinearNetwork.client.eth[0].phyLayer.transmitter flowTransmissionTime:vector ETV
attr interpolationmode none
attr recordingmode vector
attr source packetDuration(demuxFlow(transmissionEnded))
attr title "flow transmission time"
attr unit s
vector 171 TsnLinearNetwork.client.eth[0].phyLayer.phyHeaderChecker incomingPacketLengths:vector ETV
attr interpolationmode none
attr recordingmode vector
attr source "packetLength(merge(packetPushedIn, packetPulledIn))"
attr title "incoming packet lengths"
attr unit b
vector 172 TsnLinearNetwork.client.eth[0].phyLayer.phyHeaderChecker incomingDataRate:vector ETV
attr interpolationmode linear
attr recordingmode vector
attr source "throughput(merge(packetPushedIn, packetPulledIn))"
attr title "incoming data rate"
attr unit bps
vector 173 TsnLinearNetwork.client.eth[0].phyLayer.phyHeaderChecker outgoingPacketLengths:vector ETV
attr interpolationmode none
attr recordingmode vector
attr source "packetLength(merge(packetPushedOut, packetPulledOut))"
attr title "outgoing packet lengths"
attr unit b
vector 174 TsnLinearNetwork.client.eth[0].phyLayer.phyHeaderChecker outgoingDataRate:vector ETV
attr interpolationmode linear
attr recordingmode vector
attr source "throughput(merge(packetPushedOut, packetPulledOut))"
attr title "outgoing data rate"
attr unit bps
vector 175 TsnLinearNetwork.client.eth[0].phyLayer.phyHeaderChecker droppedPacketLengths:vector ETV
attr interpolationmode none
attr recordingmode vector
attr source packetLength(packetDropped)
attr title "dropped packet lengths"
attr unit b
vector 176 TsnLinearNetwork.client.eth[0].phyLayer.phyHeaderChecker droppedDataRate:vector ETV
attr interpolationmode linear
attr recordingmode vector
attr source throughput(packetDropped)
attr title "dropped data rate"
attr unit bps
vector 177 TsnLinearNetwork.client.eth[0].phyLayer.phyHeaderChecker flowIncomingPacketLengths:vector ETV
attr interpolationmode none
attr recordingmode vector
attr source "packetLength(demuxFlow(merge(packetPushedIn, packetPulledIn)))"
attr title "flow specific incoming packet lengths"
attr unit b
vector 178 TsnLinearNetwork.client.eth[0].phyLayer.phyHeaderChecker flowIncomingDataRate:vector ETV
attr interpolationmode linear
attr recordingmode vector
attr source "throughput(demuxFlow(merge(packetPushedIn, packetPulledIn)))"
attr title "flow specific incoming data rate"
attr unit bps
vector 179 TsnLinearNetwork.client.eth[0].phyLayer.phyHeaderChecker flowOutgoingPacketLengths:vector ETV
attr interpolationmode none
attr recordingmode vector
attr source "packetLength(demuxFlow(merge(packetPushedOut, packetPulledOut)))"
attr title "flow specific outgoing packet lengths"
attr unit b
vector 180 TsnLinearNetwork.client.eth[0].phyLayer.phyHeaderChecker flowOutgoingDataRate:vector ETV
attr interpolationmode linear
attr recordingmode vector
attr source "throughput(demuxFlow(merge(packetPushedOut, packetPulledOut)))"
attr title "flow specific outgoing data rate"
attr unit bps
vector 181 TsnLinearNetwork.client.eth[0].phyLayer.phyHeaderChecker flowDroppedPacketLengths:vector ETV
attr interpolationmode none
attr recordingmode vector
attr source packetLength(demuxFlow(packetDropped))
attr title "flow specific dropped packet lengths"
attr unit b
vector 182 TsnLinearNetwork.client.eth[0].phyLayer.phyHeaderChecker flowDroppedDataRate:vector ETV
attr interpolationmode linear
attr recordingmode vector
attr source throughput(demuxFlow(packetDropped))
attr title "flow specific dropped data rate"
attr unit bps
vector 183 TsnLinearNetwork.client.eth[0].phyLayer.inboundEmitter incomingPacketLengths:vector ETV
attr interpolationmode none
attr recordingmode vector
attr source "packetLength(merge(packetPushedIn, packetPulledIn))"
attr title "incoming packet lengths"
attr unit b
vector 184 TsnLinearNetwork.client.eth[0].phyLayer.inboundEmitter incomingDataRate:vector ETV
attr interpolationmode linear
attr recordingmode vector
attr source "throughput(merge(packetPushedIn, packetPulledIn))"
attr title "incoming data rate"
attr unit bps
vector 185 TsnLinearNetwork.client.eth[0].phyLayer.inboundEmitter outgoingPacketLengths:vector ETV
attr interpolationmode none
attr recordingmode vector
attr source "packetLength(merge(packetPushedOut, packetPulledOut))"
attr title "outgoing packet lengths"
attr unit b
vector 186 TsnLinearNetwork.client.eth[0].phyLayer.inboundEmitter outgoingDataRate:vector ETV
attr interpolationmode linear
attr recordingmode vector
attr source "throughput(merge(packetPushedOut, packetPulledOut))"
attr title "outgoing data rate"
attr unit bps
vector 187 TsnLinearNetwork.client.eth[0].phyLayer.inboundEmitter flowIncomingPacketLengths:vector ETV
attr interpolationmode none
attr recordingmode vector
attr source "packetLength(demuxFlow(merge(packetPushedIn, packetPulledIn)))"
attr title "flow specific incoming packet lengths"
attr unit b
vector 188 TsnLinearNetwork.client.eth[0].phyLayer.inboundEmitter flowIncomingDataRate:vector ETV
attr interpolationmode linear
attr recordingmode vector
attr source "throughput(demuxFlow(merge(packetPushedIn, packetPulledIn)))"
attr title "flow specific incoming data rate"
attr unit bps
vector 189 TsnLinearNetwork.client.eth[0].phyLayer.inboundEmitter flowOutgoingPacketLengths:vector ETV
attr interpolationmode none
attr recordingmode vector
attr source "packetLength(demuxFlow(merge(packetPushedOut, packetPulledOut)))"
attr title "flow specific outgoing packet lengths"
attr unit b
vector 190 TsnLinearNetwork.client.eth[0].phyLayer.inboundEmitter flowOutgoingDataRate:vector ETV
attr interpolationmode linear
attr recordingmode vector
attr source "throughput(demuxFlow(merge(packetPushedOut, packetPulledOut)))"
attr title "flow specific outgoing data rate"
attr unit bps
vector 191 TsnLinearNetwork.client.eth[0].phyLayer.receiver throughput:vector ETV
attr interpolationmode linear
attr recordingmode vector
attr source throughput(receptionEnded)
attr title throughput
attr unit bps
vector 192 TsnLinearNetwork.client.eth[0].phyLayer.receiver receptionTime:vector ETV
attr interpolationmode none
attr recordingmode vector
attr source packetDuration(receptionEnded)
attr title "reception time"
attr unit s
vector 193 TsnLinearNetwork.client.eth[0].phyLayer.receiver flowReceptionTime:vector ETV
attr interpolationmode none
attr recordingmode vector
attr source packetDuration(demuxFlow(receptionEnded))
attr title "flow reception time"
attr unit s
vector 194 TsnLinearNetwork.client.eth[0] packetDropInterfaceDown:vector(packetBytes) ETV
attr interpolationmode none
attr recordingmode vector(packetBytes)
attr source packetDropReasonIsInterfaceDown(packetDropped)
attr title "packet drops: interface down, packetBytes"
vector 195 TsnLinearNetwork.client.eth[0] packetDropNoCarrier:vector(packetBytes) ETV
attr interpolationmode none
attr recordingmode vector(packetBytes)
attr source packetDropReasonIsNoCarrier(packetDropped)
attr title "packet drops: no carrier, packetBytes"
vector 196 TsnLinearNetwork.client.ipv4.ip packetDropAddressResolutionFailed:vector(packetBytes) ETV
attr interpolationmode none
attr recordingmode vector(packetBytes)
attr source packetDropReasonIsAddressResolutionFailed(packetDropped)
attr title "packet drop: address resolution failed, packetBytes"
vector 197 TsnLinearNetwork.client.ipv4.ip packetDropHopLimitReached:vector(packetBytes) ETV
attr interpolationmode none
attr recordingmode vector(packetBytes)
attr source packetDropReasonIsHopLimitReached(packetDropped)
attr title "packet drop: hop limit reached, packetBytes"
vector 198 TsnLinearNetwork.client.ipv4.ip packetDropForwardingDisabled:vector(packetBytes) ETV
attr interpolationmode none
attr recordingmode vector(packetBytes)
attr source packetDropReasonIsForwardingDisabled(packetDropped)
attr title "packet drop: forwarding disabled, packetBytes"
vector 199 TsnLinearNetwork.client.ipv4.ip packetDropNoInterfaceFound:vector(packetBytes) ETV
attr interpolationmode none
attr recordingmode vector(packetBytes)
attr source packetDropReasonIsNoInterfaceFound(packetDropped)
attr title "packet drop: no interface found, packetBytes"
vector 200 TsnLinearNetwork.client.ipv4.ip packetDropNoRouteFound:vector(packetBytes) ETV
attr interpolationmode none
attr recordingmode vector(packetBytes)
attr source packetDropReasonIsNoRouteFound(packetDropped)
attr title "packet drop: no route found, packetBytes"
vector 201 TsnLinearNetwork.client.ipv4.ip packetDropUndefined:vector(packetBytes) ETV
attr interpolationmode none
attr recordingmode vector(packetBytes)
attr source packetDropReasonIsUndefined(packetDropped)
attr title "packet drop: undefined, packetBytes"
vector 202 TsnLinearNetwork.client.udp packetSent:vector(packetBytes) ETV
attr interpolationmode none
attr recordingmode vector(packetBytes)
attr source packetSent
attr title "packets sent, packetBytes"
vector 203 TsnLinearNetwork.client.udp packetReceived:vector(packetBytes) ETV
attr interpolationmode none
attr recordingmode vector(packetBytes)
attr source packetReceived
attr title "packets received, packetBytes"
vector 204 TsnLinearNetwork.client.udp passedUpPk:vector(count) ETV
attr interpolationmode none
attr recordingmode vector(count)
attr source packetSentToUpper
attr title "packets passed up, count"
vector 205 TsnLinearNetwork.client.udp droppedPkWrongPort:vector(count) ETV
attr interpolationmode none
attr recordingmode vector(count)
attr source packetDropReasonIsNoPortFound(packetDropped)
attr title "packets dropped (wrong port), count"
vector 206 TsnLinearNetwork.client.udp droppedPkBadChecksum:vector(count) ETV
attr interpolationmode none
attr recordingmode vector(count)
attr source packetDropReasonIsIncorrectlyReceived(packetDropped)
attr title "packets dropped (checksum error), count"
vector 207 TsnLinearNetwork.client.app[0].source packetLengths:vector ETV
attr interpolationmode none
attr moduledisplaypath "TsnLinearNetwork.client.speed/torque command.source"
attr recordingmode vector
attr source packetLength(packetPushed)
attr title "packet lengths"
attr unit b
vector 208 TsnLinearNetwork.client.app[0].source dataRate:vector ETV
attr interpolationmode linear
attr moduledisplaypath "TsnLinearNetwork.client.speed/torque command.source"
attr recordingmode vector
attr source throughput(packetPushed)
attr title "data rate"
attr unit bps
vector 209 TsnLinearNetwork.client.app[0].io packetSent:vector(packetBytes) ETV
attr interpolationmode none
attr moduledisplaypath "TsnLinearNetwork.client.speed/torque command.io"
attr recordingmode vector(packetBytes)
attr source packetSent
attr title "packets sent, packetBytes"
vector 210 TsnLinearNetwork.client.app[0].io packetReceived:vector(packetBytes) ETV
attr interpolationmode none
attr moduledisplaypath "TsnLinearNetwork.client.speed/torque command.io"
attr recordingmode vector(packetBytes)
attr source packetReceived
attr title "packets received, packetBytes"
vector 211 TsnLinearNetwork.client.app[1].source packetLengths:vector ETV
attr interpolationmode none
attr moduledisplaypath "TsnLinearNetwork.client.brake command.source"
attr recordingmode vector
attr source packetLength(packetPushed)
attr title "packet lengths"
attr unit b
vector 212 TsnLinearNetwork.client.app[1].source dataRate:vector ETV
attr interpolationmode linear
attr moduledisplaypath "TsnLinearNetwork.client.brake command.source"
attr recordingmode vector
attr source throughput(packetPushed)
attr title "data rate"
attr unit bps
vector 213 TsnLinearNetwork.client.app[1].io packetSent:vector(packetBytes) ETV
attr interpolationmode none
attr moduledisplaypath "TsnLinearNetwork.client.brake command.io"
attr recordingmode vector(packetBytes)
attr source packetSent
attr title "packets sent, packetBytes"
vector 214 TsnLinearNetwork.client.app[1].io packetReceived:vector(packetBytes) ETV
attr interpolationmode none
attr moduledisplaypath "TsnLinearNetwork.client.brake command.io"
attr recordingmode vector(packetBytes)
attr source packetReceived
attr title "packets received, packetBytes"
vector 215 TsnLinearNetwork.switch.bridging.directionReverser.reverser incomingPacketLengths:vector ETV
attr interpolationmode none
attr recordingmode vector
attr source "packetLength(merge(packetPushedIn, packetPulledIn))"
attr title "incoming packet lengths"
attr unit b
vector 216 TsnLinearNetwork.switch.bridging.directionReverser.reverser incomingDataRate:vector ETV
attr interpolationmode linear
attr recordingmode vector
attr source "throughput(merge(packetPushedIn, packetPulledIn))"
attr title "incoming data rate"
attr unit bps
vector 217 TsnLinearNetwork.switch.bridging.directionReverser.reverser outgoingPacketLengths:vector ETV
attr interpolationmode none
attr recordingmode vector
attr source "packetLength(merge(packetPushedOut, packetPulledOut))"
attr title "outgoing packet lengths"
attr unit b
vector 218 TsnLinearNetwork.switch.bridging.directionReverser.reverser outgoingDataRate:vector ETV
attr interpolationmode linear
attr recordingmode vector
attr source "throughput(merge(packetPushedOut, packetPulledOut))"
attr title "outgoing data rate"
attr unit bps
vector 219 TsnLinearNetwork.switch.bridging.directionReverser.reverser flowIncomingPacketLengths:vector ETV
attr interpolationmode none
attr recordingmode vector
attr source "packetLength(demuxFlow(merge(packetPushedIn, packetPulledIn)))"
attr title "flow specific incoming packet lengths"
attr unit b
vector 220 TsnLinearNetwork.switch.bridging.directionReverser.reverser flowIncomingDataRate:vector ETV
attr interpolationmode linear
attr recordingmode vector
attr source "throughput(demuxFlow(merge(packetPushedIn, packetPulledIn)))"
attr title "flow specific incoming data rate"
attr unit bps
vector 221 TsnLinearNetwork.switch.bridging.directionReverser.reverser flowOutgoingPacketLengths:vector ETV
attr interpolationmode none
attr recordingmode vector
attr source "packetLength(demuxFlow(merge(packetPushedOut, packetPulledOut)))"
attr title "flow specific outgoing packet lengths"
attr unit b
vector 222 TsnLinearNetwork.switch.bridging.directionReverser.reverser flowOutgoingDataRate:vector ETV
attr interpolationmode linear
attr recordingmode vector
attr source "throughput(demuxFlow(merge(packetPushedOut, packetPulledOut)))"
attr title "flow specific outgoing data rate"
attr unit bps
vector 223 TsnLinearNetwork.switch.bridging.directionReverser.join packetLengths:vector ETV
attr interpolationmode none
attr recordingmode vector
attr source "packetLength(merge(packetPushed, packetPulled))"
attr title "packet lengths"
attr unit b
vector 224 TsnLinearNetwork.switch.bridging.directionReverser.join dataRate:vector ETV
attr interpolationmode linear
attr recordingmode vector
attr source "throughput(merge(packetPushed, packetPulled))"
attr title "data rate"
attr unit bps
vector 225 TsnLinearNetwork.switch.bridging.interfaceRelay.learner incomingPacketLengths:vector ETV
attr interpolationmode none
attr recordingmode vector
attr source "packetLength(merge(packetPushedIn, packetPulledIn))"
attr title "incoming packet lengths"
attr unit b
vector 226 TsnLinearNetwork.switch.bridging.interfaceRelay.learner incomingDataRate:vector ETV
attr interpolationmode linear
attr recordingmode vector
attr source "throughput(merge(packetPushedIn, packetPulledIn))"
attr title "incoming data rate"
attr unit bps
vector 227 TsnLinearNetwork.switch.bridging.interfaceRelay.learner outgoingPacketLengths:vector ETV
attr interpolationmode none
attr recordingmode vector
attr source "packetLength(merge(packetPushedOut, packetPulledOut))"
attr title "outgoing packet lengths"
attr unit b
vector 228 TsnLinearNetwork.switch.bridging.interfaceRelay.learner outgoingDataRate:vector ETV
attr interpolationmode linear
attr recordingmode vector
attr source "throughput(merge(packetPushedOut, packetPulledOut))"
attr title "outgoing data rate"
attr unit bps
vector 229 TsnLinearNetwork.switch.bridging.interfaceRelay.learner flowIncomingPacketLengths:vector ETV
attr interpolationmode none
attr recordingmode vector
attr source "packetLength(demuxFlow(merge(packetPushedIn, packetPulledIn)))"
attr title "flow specific incoming packet lengths"
attr unit b
vector 230 TsnLinearNetwork.switch.bridging.interfaceRelay.learner flowIncomingDataRate:vector ETV
attr interpolationmode linear
attr recordingmode vector
attr source "throughput(demuxFlow(merge(packetPushedIn, packetPulledIn)))"
attr title "flow specific incoming data rate"
attr unit bps
vector 231 TsnLinearNetwork.switch.bridging.interfaceRelay.learner flowOutgoingPacketLengths:vector ETV
attr interpolationmode none
attr recordingmode vector
attr source "packetLength(demuxFlow(merge(packetPushedOut, packetPulledOut)))"
attr title "flow specific outgoing packet lengths"
attr unit b
vector 232 TsnLinearNetwork.switch.bridging.interfaceRelay.learner flowOutgoingDataRate:vector ETV
attr interpolationmode linear
attr recordingmode vector
attr source "throughput(demuxFlow(merge(packetPushedOut, packetPulledOut)))"
attr title "flow specific outgoing data rate"
attr unit bps
vector 233 TsnLinearNetwork.switch.bridging.interfaceRelay.selector packetDropped:vector(packetBytes) ETV
attr interpolationmode none
attr recordingmode vector(packetBytes)
attr title "packets dropped, packetBytes"
vector 234 TsnLinearNetwork.switch.ethernet.macHeaderInserter incomingPacketLengths:vector ETV
attr interpolationmode none
attr recordingmode vector
attr source "packetLength(merge(packetPushedIn, packetPulledIn))"
attr title "incoming packet lengths"
attr unit b
vector 235 TsnLinearNetwork.switch.ethernet.macHeaderInserter incomingDataRate:vector ETV
attr interpolationmode linear
attr recordingmode vector
attr source "throughput(merge(packetPushedIn, packetPulledIn))"
attr title "incoming data rate"
attr unit bps
vector 236 TsnLinearNetwork.switch.ethernet.macHeaderInserter outgoingPacketLengths:vector ETV
attr interpolationmode none
attr recordingmode vector
attr source "packetLength(merge(packetPushedOut, packetPulledOut))"
attr title "outgoing packet lengths"
attr unit b
vector 237 TsnLinearNetwork.switch.ethernet.macHeaderInserter outgoingDataRate:vector ETV
attr interpolationmode linear
attr recordingmode vector
attr source "throughput(merge(packetPushedOut, packetPulledOut))"
attr title "outgoing data rate"
attr unit bps
vector 238 TsnLinearNetwork.switch.ethernet.macHeaderInserter flowIncomingPacketLengths:vector ETV
attr interpolationmode none
attr recordingmode vector
attr source "packetLength(demuxFlow(merge(packetPushedIn, packetPulledIn)))"
attr title "flow specific incoming packet lengths"
attr unit b
vector 239 TsnLinearNetwork.switch.ethernet.macHeaderInserter flowIncomingDataRate:vector ETV
attr interpolationmode linear
attr recordingmode vector
attr source "throughput(demuxFlow(merge(packetPushedIn, packetPulledIn)))"
attr title "flow specific incoming data rate"
attr unit bps
vector 240 TsnLinearNetwork.switch.ethernet.macHeaderInserter flowOutgoingPacketLengths:vector ETV
attr interpolationmode none
attr recordingmode vector
attr source "packetLength(demuxFlow(merge(packetPushedOut, packetPulledOut)))"
attr title "flow specific outgoing packet lengths"
attr unit b
vector 241 TsnLinearNetwork.switch.ethernet.macHeaderInserter flowOutgoingDataRate:vector ETV
attr interpolationmode linear
attr recordingmode vector
attr source "throughput(demuxFlow(merge(packetPushedOut, packetPulledOut)))"
attr title "flow specific outgoing data rate"
attr unit bps
vector 242 TsnLinearNetwork.switch.ethernet.paddingInserter incomingPacketLengths:vector ETV
attr interpolationmode none
attr recordingmode vector
attr source "packetLength(merge(packetPushedIn, packetPulledIn))"
attr title "incoming packet lengths"
attr unit b
vector 243 TsnLinearNetwork.switch.ethernet.paddingInserter incomingDataRate:vector ETV
attr interpolationmode linear
attr recordingmode vector
attr source "throughput(merge(packetPushedIn, packetPulledIn))"
attr title "incoming data rate"
attr unit bps
vector 244 TsnLinearNetwork.switch.ethernet.paddingInserter outgoingPacketLengths:vector ETV
attr interpolationmode none
attr recordingmode vector
attr source "packetLength(merge(packetPushedOut, packetPulledOut))"
attr title "outgoing packet lengths"
attr unit b
vector 245 TsnLinearNetwork.switch.ethernet.paddingInserter outgoingDataRate:vector ETV
attr interpolationmode linear
attr recordingmode vector
attr source "throughput(merge(packetPushedOut, packetPulledOut))"
attr title "outgoing data rate"
attr unit bps
vector 246 TsnLinearNetwork.switch.ethernet.paddingInserter flowIncomingPacketLengths:vector ETV
attr interpolationmode none
attr recordingmode vector
attr source "packetLength(demuxFlow(merge(packetPushedIn, packetPulledIn)))"
attr title "flow specific incoming packet lengths"
attr unit b
vector 247 TsnLinearNetwork.switch.ethernet.paddingInserter flowIncomingDataRate:vector ETV
attr interpolationmode linear
attr recordingmode vector
attr source "throughput(demuxFlow(merge(packetPushedIn, packetPulledIn)))"
attr title "flow specific incoming data rate"
attr unit bps
vector 248 TsnLinearNetwork.switch.ethernet.paddingInserter flowOutgoingPacketLengths:vector ETV
attr interpolationmode none
attr recordingmode vector
attr source "packetLength(demuxFlow(merge(packetPushedOut, packetPulledOut)))"
attr title "flow specific outgoing packet lengths"
attr unit b
vector 249 TsnLinearNetwork.switch.ethernet.paddingInserter flowOutgoingDataRate:vector ETV
attr interpolationmode linear
attr recordingmode vector
attr source "throughput(demuxFlow(merge(packetPushedOut, packetPulledOut)))"
attr title "flow specific outgoing data rate"
attr unit bps
vector 250 TsnLinearNetwork.switch.ethernet.fcsInserter incomingPacketLengths:vector ETV
attr interpolationmode none
attr recordingmode vector
attr source "packetLength(merge(packetPushedIn, packetPulledIn))"
attr title "incoming packet lengths"
attr unit b
vector 251 TsnLinearNetwork.switch.ethernet.fcsInserter incomingDataRate:vector ETV
attr interpolationmode linear
attr recordingmode vector
attr source "throughput(merge(packetPushedIn, packetPulledIn))"
attr title "incoming data rate"
attr unit bps
vector 252 TsnLinearNetwork.switch.ethernet.fcsInserter outgoingPacketLengths:vector ETV
attr interpolationmode none
attr recordingmode vector
attr source "packetLength(merge(packetPushedOut, packetPulledOut))"
attr title "outgoing packet lengths"
attr unit b
vector 253 TsnLinearNetwork.switch.ethernet.fcsInserter outgoingDataRate:vector ETV
attr interpolationmode linear
attr recordingmode vector
attr source "throughput(merge(packetPushedOut, packetPulledOut))"
attr title "outgoing data rate"
attr unit bps
vector 254 TsnLinearNetwork.switch.ethernet.fcsInserter flowIncomingPacketLengths:vector ETV
attr interpolationmode none
attr recordingmode vector
attr source "packetLength(demuxFlow(merge(packetPushedIn, packetPulledIn)))"
attr title "flow specific incoming packet lengths"
attr unit b
vector 255 TsnLinearNetwork.switch.ethernet.fcsInserter flowIncomingDataRate:vector ETV
attr interpolationmode linear
attr recordingmode vector
attr source "throughput(demuxFlow(merge(packetPushedIn, packetPulledIn)))"
attr title "flow specific incoming data rate"
attr unit bps
vector 256 TsnLinearNetwork.switch.ethernet.fcsInserter flowOutgoingPacketLengths:vector ETV
attr interpolationmode none
attr recordingmode vector
attr source "packetLength(demuxFlow(merge(packetPushedOut, packetPulledOut)))"
attr title "flow specific outgoing packet lengths"
attr unit b
vector 257 TsnLinearNetwork.switch.ethernet.fcsInserter flowOutgoingDataRate:vector ETV
attr interpolationmode linear
attr recordingmode vector
attr source "throughput(demuxFlow(merge(packetPushedOut, packetPulledOut)))"
attr title "flow specific outgoing data rate"
attr unit bps
vector 258 TsnLinearNetwork.switch.ethernet.macHeaderChecker incomingPacketLengths:vector ETV
attr interpolationmode none
attr recordingmode vector
attr source "packetLength(merge(packetPushedIn, packetPulledIn))"
attr title "incoming packet lengths"
attr unit b
vector 259 TsnLinearNetwork.switch.ethernet.macHeaderChecker incomingDataRate:vector ETV
attr interpolationmode linear
attr recordingmode vector
attr source "throughput(merge(packetPushedIn, packetPulledIn))"
attr title "incoming data rate"
attr unit bps
vector 260 TsnLinearNetwork.switch.ethernet.macHeaderChecker outgoingPacketLengths:vector ETV
attr interpolationmode none
attr recordingmode vector
attr source "packetLength(merge(packetPushedOut, packetPulledOut))"
attr title "outgoing packet lengths"
attr unit b
vector 261 TsnLinearNetwork.switch.ethernet.macHeaderChecker outgoingDataRate:vector ETV
attr interpolationmode linear
attr recordingmode vector
attr source "throughput(merge(packetPushedOut, packetPulledOut))"
attr title "outgoing data rate"
attr unit bps
vector 262 TsnLinearNetwork.switch.ethernet.macHeaderChecker droppedPacketLengths:vector ETV
attr interpolationmode none
attr recordingmode vector
attr source packetLength(packetDropped)
attr title "dropped packet lengths"
attr unit b
vector 263 TsnLinearNetwork.switch.ethernet.macHeaderChecker droppedDataRate:vector ETV
attr interpolationmode linear
attr recordingmode vector
attr source throughput(packetDropped)
attr title "dropped data rate"
attr unit bps
vector 264 TsnLinearNetwork.switch.ethernet.macHeaderChecker flowIncomingPacketLengths:vector ETV
attr interpolationmode none
attr recordingmode vector
attr source "packetLength(demuxFlow(merge(packetPushedIn, packetPulledIn)))"
attr title "flow specific incoming packet lengths"
attr unit b
vector 265 TsnLinearNetwork.switch.ethernet.macHeaderChecker flowIncomingDataRate:vector ETV
attr interpolationmode linear
attr recordingmode vector
attr source "throughput(demuxFlow(merge(packetPushedIn, packetPulledIn)))"
attr title "flow specific incoming data rate"
attr unit bps
vector 266 TsnLinearNetwork.switch.ethernet.macHeaderChecker flowOutgoingPacketLengths:vector ETV
attr interpolationmode none
attr recordingmode vector
attr source "packetLength(demuxFlow(merge(packetPushedOut, packetPulledOut)))"
attr title "flow specific outgoing packet lengths"
attr unit b
vector 267 TsnLinearNetwork.switch.ethernet.macHeaderChecker flowOutgoingDataRate:vector ETV
attr interpolationmode linear
attr recordingmode vector
attr source "throughput(demuxFlow(merge(packetPushedOut, packetPulledOut)))"
attr title "flow specific outgoing data rate"
attr unit bps
vector 268 TsnLinearNetwork.switch.ethernet.macHeaderChecker flowDroppedPacketLengths:vector ETV
attr interpolationmode none
attr recordingmode vector
attr source packetLength(demuxFlow(packetDropped))
attr title "flow specific dropped packet lengths"
attr unit b
vector 269 TsnLinearNetwork.switch.ethernet.macHeaderChecker flowDroppedDataRate:vector ETV
attr interpolationmode linear
attr recordingmode vector
attr source throughput(demuxFlow(packetDropped))
attr title "flow specific dropped data rate"
attr unit bps
vector 270 TsnLinearNetwork.switch.ethernet.fcsChecker incomingPacketLengths:vector ETV
attr interpolationmode none
attr recordingmode vector
attr source "packetLength(merge(packetPushedIn, packetPulledIn))"
attr title "incoming packet lengths"
attr unit b
vector 271 TsnLinearNetwork.switch.ethernet.fcsChecker incomingDataRate:vector ETV
attr interpolationmode linear
attr recordingmode vector
attr source "throughput(merge(packetPushedIn, packetPulledIn))"
attr title "incoming data rate"
attr unit bps
vector 272 TsnLinearNetwork.switch.ethernet.fcsChecker outgoingPacketLengths:vector ETV
attr interpolationmode none
attr recordingmode vector
attr source "packetLength(merge(packetPushedOut, packetPulledOut))"
attr title "outgoing packet lengths"
attr unit b
vector 273 TsnLinearNetwork.switch.ethernet.fcsChecker outgoingDataRate:vector ETV
attr interpolationmode linear
attr recordingmode vector
attr source "throughput(merge(packetPushedOut, packetPulledOut))"
attr title "outgoing data rate"
attr unit bps
vector 274 TsnLinearNetwork.switch.ethernet.fcsChecker droppedPacketLengths:vector ETV
attr interpolationmode none
attr recordingmode vector
attr source packetLength(packetDropped)
attr title "dropped packet lengths"
attr unit b
vector 275 TsnLinearNetwork.switch.ethernet.fcsChecker droppedDataRate:vector ETV
attr interpolationmode linear
attr recordingmode vector
attr source throughput(packetDropped)
attr title "dropped data rate"
attr unit bps
vector 276 TsnLinearNetwork.switch.ethernet.fcsChecker flowIncomingPacketLengths:vector ETV
attr interpolationmode none
attr recordingmode vector
attr source "packetLength(demuxFlow(merge(packetPushedIn, packetPulledIn)))"
attr title "flow specific incoming packet lengths"
attr unit b
vector 277 TsnLinearNetwork.switch.ethernet.fcsChecker flowIncomingDataRate:vector ETV
attr interpolationmode linear
attr recordingmode vector
attr source "throughput(demuxFlow(merge(packetPushedIn, packetPulledIn)))"
attr title "flow specific incoming data rate"
attr unit bps
vector 278 TsnLinearNetwork.switch.ethernet.fcsChecker flowOutgoingPacketLengths:vector ETV
attr interpolationmode none
attr recordingmode vector
attr source "packetLength(demuxFlow(merge(packetPushedOut, packetPulledOut)))"
attr title "flow specific outgoing packet lengths"
attr unit b
vector 279 TsnLinearNetwork.switch.ethernet.fcsChecker flowOutgoingDataRate:vector ETV
attr interpolationmode linear
attr recordingmode vector
attr source "throughput(demuxFlow(merge(packetPushedOut, packetPulledOut)))"
attr title "flow specific outgoing data rate"
attr unit bps
vector 280 TsnLinearNetwork.switch.ethernet.fcsChecker flowDroppedPacketLengths:vector ETV
attr interpolationmode none
attr recordingmode vector
attr source packetLength(demuxFlow(packetDropped))
attr title "flow specific dropped packet lengths"
attr unit b
vector 281 TsnLinearNetwork.switch.ethernet.fcsChecker flowDroppedDataRate:vector ETV
attr interpolationmode linear
attr recordingmode vector
attr source throughput(demuxFlow(packetDropped))
attr title "flow specific dropped data rate"
attr unit bps
vector 282 TsnLinearNetwork.switch.ieee8021q.qTagHeaderInserter incomingPacketLengths:vector ETV
attr interpolationmode none
attr recordingmode vector
attr source "packetLength(merge(packetPushedIn, packetPulledIn))"
attr title "incoming packet lengths"
attr unit b
vector 283 TsnLinearNetwork.switch.ieee8021q.qTagHeaderInserter incomingDataRate:vector ETV
attr interpolationmode linear
attr recordingmode vector
attr source "throughput(merge(packetPushedIn, packetPulledIn))"
attr title "incoming data rate"
attr unit bps
vector 284 TsnLinearNetwork.switch.ieee8021q.qTagHeaderInserter outgoingPacketLengths:vector ETV
attr interpolationmode none
attr recordingmode vector
attr source "packetLength(merge(packetPushedOut, packetPulledOut))"
attr title "outgoing packet lengths"
attr unit b
vector 285 TsnLinearNetwork.switch.ieee8021q.qTagHeaderInserter outgoingDataRate:vector ETV
attr interpolationmode linear
attr recordingmode vector
attr source "throughput(merge(packetPushedOut, packetPulledOut))"
attr title "outgoing data rate"
attr unit bps
vector 286 TsnLinearNetwork.switch.ieee8021q.qTagHeaderInserter flowIncomingPacketLengths:vector ETV
attr interpolationmode none
attr recordingmode vector
attr source "packetLength(demuxFlow(merge(packetPushedIn, packetPulledIn)))"
[...]
807	0	0	0
807	0	0	0
807	25	0.00001925	1
807	32	0.00002021	0
807	49	0.000815124505	1
807	55	0.000816084505	0
807	68	0.002071055263	1
807	74	0.002072015263	0
807	87	0.003930659475	1
807	93	0.003931619475	0
807	101	0.0040248	1
807	108	0.00402576	0
807	121	0.004853882606	1
807	127	0.004854842606	0
807	144	0.006805427942	1
807	150	0.006806387942	0
807	163	0.007592629082	1
807	169	0.007593589082	0
807	192	0.009471593136	1
807	198	0.009472553136	0
807	215	0.010448599562	1
807	221	0.010449559562	0
807	234	0.011486758863	1
807	240	0.011487718863	0
807	253	0.011971887027	1
807	259	0.011972847027	0
807	272	0.012547406224	1
807	278	0.012548366224	0
807	291	0.012900565363	1
807	297	0.012901525363	0
807	305	0.0140248	1
807	311	0.01402576	0
807	324	0.014546058752	1
807	330	0.014547018752	0
807	354	0.015129905443	1
807	360	0.015130865443	0
807	362	0.015140305443	1
807	368	0.015141265443	0
807	381	0.015442445926	1
807	387	0.015443405926	0
807	400	0.015926048031	1
807	406	0.015927008031	0
807	423	0.016575494379	1
807	429	0.016576454379	0
807	442	0.018144390497	1
807	448	0.018145350497	0
808	22	0.00000981	944
808	46	0.000805684505	944
808	65	0.002061615263	944
808	84	0.003921219475	944
808	100	0.004	2480
808	118	0.004844442606	944
808	141	0.006795987942	944
808	160	0.007583189082	944
808	189	0.009462153136	944
808	212	0.010439159562	944
808	231	0.011477318863	944
808	250	0.011962447027	944
808	269	0.012537966224	944
808	288	0.012891125363	944
808	304	0.014	2480
808	321	0.014521258752	2480
808	346	0.015105105443	2480
808	361	0.015130865443	944
808	378	0.015433005926	944
808	397	0.015916608031	944
808	420	0.016566054379	944
808	439	0.018134950497	944
808	458	0.019807161697	944
810	22	0.00000981	944
810	46	0.000805684505	944
810	65	0.002061615263	944
810	84	0.003921219475	944
810	100	0.004	2480
810	118	0.004844442606	944
810	141	0.006795987942	944
810	160	0.007583189082	944
810	189	0.009462153136	944
810	212	0.010439159562	944
810	231	0.011477318863	944
810	250	0.011962447027	944
810	269	0.012537966224	944
810	288	0.012891125363	944
810	304	0.014	2480
810	321	0.014521258752	2480
810	346	0.015105105443	2480
810	361	0.015130865443	944
810	378	0.015433005926	944
810	397	0.015916608031	944
810	420	0.016566054379	944
810	439	0.018134950497	944
810	458	0.019807161697	944
816	0	0	0
816	0	0	0
816	22	0.00000981	1
816	25	0.00001925	0
816	46	0.000805684505	1
816	49	0.000815124505	0
816	65	0.002061615263	1
816	68	0.002071055263	0
816	84	0.003921219475	1
816	87	0.003930659475	0
816	100	0.004	1
816	101	0.0040248	0
816	118	0.004844442606	1
816	121	0.004853882606	0
816	141	0.006795987942	1
816	144	0.006805427942	0
816	160	0.007583189082	1
816	163	0.007592629082	0
816	189	0.009462153136	1
816	192	0.009471593136	0
816	212	0.010439159562	1
816	215	0.010448599562	0
816	231	0.011477318863	1
816	234	0.011486758863	0
816	250	0.011962447027	1
816	253	0.011971887027	0
816	269	0.012537966224	1
816	272	0.012547406224	0
816	288	0.012891125363	1
816	291	0.012900565363	0
816	304	0.014	1
816	305	0.0140248	0
816	321	0.014521258752	1
816	324	0.014546058752	0
816	346	0.015105105443	1
816	354	0.015129905443	0
816	361	0.015130865443	1
816	362	0.015140305443	0
816	378	0.015433005926	1
816	381	0.015442445926	0
816	397	0.015916608031	1
816	400	0.015926048031	0
816	420	0.016566054379	1
816	423	0.016575494379	0
816	439	0.018134950497	1
816	442	0.018144390497	0
816	458	0.019807161697	1
819	25	0.00001925	9.44e-06
819	49	0.000815124505	9.44e-06
819	68	0.002071055263	9.44e-06
819	87	0.003930659475	9.44e-06
819	101	0.0040248	2.48e-05
819	121	0.004853882606	9.44e-06
819	144	0.006805427942	9.44e-06
819	163	0.007592629082	9.44e-06
819	192	0.009471593136	9.44e-06
819	215	0.010448599562	9.44e-06
819	234	0.011486758863	9.44e-06
819	253	0.011971887027	9.44e-06
819	272	0.012547406224	9.44e-06
819	291	0.012900565363	9.44e-06
819	305	0.0140248	2.48e-05
819	324	0.014546058752	2.48e-05
819	354	0.015129905443	2.48e-05
819	362	0.015140305443	9.44e-06
819	381	0.015442445926	9.44e-06
819	400	0.015926048031	9.44e-06
819	423	0.016575494379	9.44e-06
819	442	0.018144390497	9.44e-06
870	26	0.0000193	848
870	50	0.000815174505	848
870	69	0.002071105263	848
870	88	0.003930709475	848
870	102	0.00402485	2384
870	122	0.004853932606	848
870	145	0.006805477942	848
870	164	0.007592679082	848
870	193	0.009471643136	848
870	216	0.010448649562	848
870	235	0.011486808863	848
870	254	0.011971937027	848
870	273	0.012547456224	848
870	292	0.012900615363	848
870	306	0.01402485	2384
870	325	0.014546108752	2384
870	355	0.015129955443	2384
870	363	0.015140355443	848
870	382	0.015442495926	848
870	401	0.015926098031	848
870	424	0.016575544379	848
870	443	0.018144440497	848
872	26	0.0000193	736
872	50	0.000815174505	736
872	69	0.002071105263	736
872	88	0.003930709475	736
872	102	0.00402485	2272
872	122	0.004853932606	736
872	145	0.006805477942	736
872	164	0.007592679082	736
872	193	0.009471643136	736
872	216	0.010448649562	736
872	235	0.011486808863	736
872	254	0.011971937027	736
872	273	0.012547456224	736
872	292	0.012900615363	736
872	306	0.01402485	2272
872	325	0.014546108752	2272
872	355	0.015129955443	2272
872	363	0.015140355443	736
872	382	0.015442495926	736
872	401	0.015926098031	736
872	424	0.016575544379	736
872	443	0.018144440497	736
882	26	0.0000193	880
882	50	0.000815174505	880
882	69	0.002071105263	880
882	88	0.003930709475	880
882	102	0.00402485	2416
882	122	0.004853932606	880
882	145	0.006805477942	880
882	164	0.007592679082	880
882	193	0.009471643136	880
882	216	0.010448649562	880
882	235	0.011486808863	880
882	254	0.011971937027	880
882	273	0.012547456224	880
882	292	0.012900615363	880
882	306	0.01402485	2416
882	325	0.014546108752	2416
882	355	0.015129955443	2416
882	363	0.015140355443	880
882	382	0.015442495926	880
882	401	0.015926098031	880
882	424	0.016575544379	880
882	443	0.018144440497	880
884	26	0.0000193	848
884	50	0.000815174505	848
884	69	0.002071105263	848
884	88	0.003930709475	848
884	102	0.00402485	2384
884	122	0.004853932606	848
884	145	0.006805477942	848
884	164	0.007592679082	848
884	193	0.009471643136	848
884	216	0.010448649562	848
884	235	0.011486808863	848
884	254	0.011971937027	848
884	273	0.012547456224	848
884	292	0.012900615363	848
884	306	0.01402485	2384
884	325	0.014546108752	2384
884	355	0.015129955443	2384
884	363	0.015140355443	848
884	382	0.015442495926	848
884	401	0.015926098031	848
884	424	0.016575544379	848
884	443	0.018144440497	848
898	0	0	0
898	0	0	0
898	0	0	0
898	0	0	0
898	0	0	0
899	0	0	0
899	0	0	0
899	0	0	0
899	0	0	0
899	0	0	0
921	26	0.0000193	880
921	50	0.000815174505	880
921	69	0.002071105263	880
921	88	0.003930709475	880
921	102	0.00402485	2416
921	122	0.004853932606	880
921	145	0.006805477942	880
921	164	0.007592679082	880
921	193	0.009471643136	880
921	216	0.010448649562	880
921	235	0.011486808863	880
921	254	0.011971937027	880
921	273	0.012547456224	880
921	292	0.012900615363	880
921	306	0.01402485	2416
921	325	0.014546108752	2416
921	355	0.015129955443	2416
921	363	0.015140355443	880
921	382	0.015442495926	880
921	401	0.015926098031	880
921	424	0.016575544379	880
921	443	0.018144440497	880
923	26	0.0000193	880
923	50	0.000815174505	880
923	69	0.002071105263	880
923	88	0.003930709475	880
923	102	0.00402485	2416
923	122	0.004853932606	880
923	145	0.006805477942	880
923	164	0.007592679082	880
923	193	0.009471643136	880
923	216	0.010448649562	880
923	235	0.011486808863	880
923	254	0.011971937027	880
923	273	0.012547456224	880
923	292	0.012900615363	880
923	306	0.01402485	2416
923	325	0.014546108752	2416
923	355	0.015129955443	2416
923	363	0.015140355443	880
923	382	0.015442495926	880
923	401	0.015926098031	880
923	424	0.016575544379	880
923	443	0.018144440497	880
933	26	0.0000193	880
933	50	0.000815174505	880
933	69	0.002071105263	880
933	88	0.003930709475	880
933	102	0.00402485	2416
933	122	0.004853932606	880
933	145	0.006805477942	880
933	164	0.007592679082	880
933	193	0.009471643136	880
933	216	0.010448649562	880
933	235	0.011486808863	880
933	254	0.011971937027	880
933	273	0.012547456224	880
933	292	0.012900615363	880
933	306	0.01402485	2416
933	325	0.014546108752	2416
933	355	0.015129955443	2416
933	363	0.015140355443	880
933	382	0.015442495926	880
933	401	0.015926098031	880
933	424	0.016575544379	880
933	443	0.018144440497	880
935	26	0.0000193	880
935	50	0.000815174505	880
935	69	0.002071105263	880
935	88	0.003930709475	880
935	102	0.00402485	2416
935	122	0.004853932606	880
935	145	0.006805477942	880
935	164	0.007592679082	880
935	193	0.009471643136	880
935	216	0.010448649562	880
935	235	0.011486808863	880
935	254	0.011971937027	880
935	273	0.012547456224	880
935	292	0.012900615363	880
935	306	0.01402485	2416
935	325	0.014546108752	2416
935	355	0.015129955443	2416
935	363	0.015140355443	880
935	382	0.015442495926	880
935	401	0.015926098031	880
935	424	0.016575544379	880
935	443	0.018144440497	880
949	0	0	0
949	0	0	0
958	0	0	0
958	0	0	0
963	26	0.0000193	944
963	50	0.000815174505	944
963	69	0.002071105263	944
963	88	0.003930709475	944
963	102	0.00402485	2480
963	122	0.004853932606	944
963	145	0.006805477942	944
963	164	0.007592679082	944
963	193	0.009471643136	944
963	216	0.010448649562	944
963	235	0.011486808863	944
963	254	0.011971937027	944
963	273	0.012547456224	944
963	292	0.012900615363	944
963	306	0.01402485	2480
963	325	0.014546108752	2480
963	355	0.015129955443	2480
963	363	0.015140355443	944
963	382	0.015442495926	944
963	401	0.015926098031	944
963	424	0.016575544379	944
963	443	0.018144440497	944
965	26	0.0000193	880
965	50	0.000815174505	880
965	69	0.002071105263	880
965	88	0.003930709475	880
965	102	0.00402485	2416
965	122	0.004853932606	880
965	145	0.006805477942	880
965	164	0.007592679082	880
965	193	0.009471643136	880
965	216	0.010448649562	880
965	235	0.011486808863	880
965	254	0.011971937027	880
965	273	0.012547456224	880
965	292	0.012900615363	880
965	306	0.01402485	2416
965	325	0.014546108752	2416
965	355	0.015129955443	2416
965	363	0.015140355443	880
965	382	0.015442495926	880
965	401	0.015926098031	880
965	424	0.016575544379	880
965	443	0.018144440497	880
975	26	0.0000193	944
975	50	0.000815174505	944
975	69	0.002071105263	944
975	88	0.003930709475	944
975	102	0.00402485	2480
975	122	0.004853932606	944
975	145	0.006805477942	944
975	164	0.007592679082	944
975	193	0.009471643136	944
975	216	0.010448649562	944
975	235	0.011486808863	944
975	254	0.011971937027	944
975	273	0.012547456224	944
975	292	0.012900615363	944
975	306	0.01402485	2480
975	325	0.014546108752	2480
975	355	0.015129955443	2480
975	363	0.015140355443	944
975	382	0.015442495926	944
975	401	0.015926098031	944
975	424	0.016575544379	944
975	443	0.018144440497	944
977	26	0.0000193	944
977	50	0.000815174505	944
977	69	0.002071105263	944
977	88	0.003930709475	944
977	102	0.00402485	2480
977	122	0.004853932606	944
977	145	0.006805477942	944
977	164	0.007592679082	944
977	193	0.009471643136	944
977	216	0.010448649562	944
977	235	0.011486808863	944
977	254	0.011971937027	944
977	273	0.012547456224	944
977	292	0.012900615363	944
977	306	0.01402485	2480
977	325	0.014546108752	2480
977	355	0.015129955443	2480
977	363	0.015140355443	944
977	382	0.015442495926	944
977	401	0.015926098031	944
977	424	0.016575544379	944
977	443	0.018144440497	944
984	26	0.0000193	9.44e-06
984	50	0.000815174505	9.44e-06
984	69	0.002071105263	9.44e-06
984	88	0.003930709475	9.44e-06
984	102	0.00402485	2.48e-05
984	122	0.004853932606	9.44e-06
984	145	0.006805477942	9.44e-06
984	164	0.007592679082	9.44e-06
984	193	0.009471643136	9.44e-06
984	216	0.010448649562	9.44e-06
984	235	0.011486808863	9.44e-06
984	254	0.011971937027	9.44e-06
984	273	0.012547456224	9.44e-06
984	292	0.012900615363	9.44e-06
984	306	0.01402485	2.48e-05
984	325	0.014546108752	2.48e-05
984	355	0.015129955443	2.48e-05
984	363	0.015140355443	9.44e-06
984	382	0.015442495926	9.44e-06
984	401	0.015926098031	9.44e-06
984	424	0.016575544379	9.44e-06
984	443	0.018144440497	9.44e-06
995	28	0.0000193	72
995	52	0.000815174505	72
995	71	0.002071105263	72
995	90	0.003930709475	72
995	104	0.00402485	264
995	124	0.004853932606	72
995	147	0.006805477942	72
995	166	0.007592679082	72
995	195	0.009471643136	72
995	218	0.010448649562	72
995	237	0.011486808863	72
995	256	0.011971937027	72
995	275	0.012547456224	72
995	294	0.012900615363	72
995	308	0.01402485	264
995	327	0.014546108752	264
995	357	0.015129955443	264
995	365	0.015140355443	72
995	384	0.015442495926	72
995	403	0.015926098031	72
995	426	0.016575544379	72
995	445	0.018144440497	72
996	0	0	0
996	28	0.0000193	1
996	52	0.000815174505	2
996	71	0.002071105263	3
996	90	0.003930709475	4
996	104	0.00402485	5
996	124	0.004853932606	6
996	147	0.006805477942	7
996	166	0.007592679082	8
996	195	0.009471643136	9
996	218	0.010448649562	10
996	237	0.011486808863	11
996	256	0.011971937027	12
996	275	0.012547456224	13
996	294	0.012900615363	14
996	308	0.01402485	15
996	327	0.014546108752	16
996	357	0.015129955443	17
996	365	0.015140355443	18
996	384	0.015442495926	19
996	403	0.015926098031	20
996	426	0.016575544379	21
996	445	0.018144440497	22
997	0	0	0
998	0	0	0
999	30	0.0000193	512
999	54	0.000815174505	512
999	73	0.002071105263	512
999	92	0.003930709475	512
999	126	0.004853932606	512
999	149	0.006805477942	512
999	168	0.007592679082	512
999	197	0.009471643136	512
999	220	0.010448649562	512
999	239	0.011486808863	512
999	258	0.011971937027	512
999	277	0.012547456224	512
999	296	0.012900615363	512
999	367	0.015140355443	512
999	386	0.015442495926	512
999	405	0.015926098031	512
999	428	0.016575544379	512
999	447	0.018144440497	512
1001	30	0.0000193	512
1001	54	0.000815174505	512
1001	73	0.002071105263	512
1001	92	0.003930709475	512
1001	126	0.004853932606	512
1001	149	0.006805477942	512
1001	168	0.007592679082	512
1001	197	0.009471643136	512
1001	220	0.010448649562	512
1001	239	0.011486808863	512
1001	258	0.011971937027	512
1001	277	0.012547456224	512
1001	296	0.012900615363	512
1001	367	0.015140355443	512
1001	386	0.015442495926	512
1001	405	0.015926098031	512
1001	428	0.016575544379	512
1001	447	0.018144440497	512
1003	54	0.0000193	1.93e-05
1003	73	0.000815174505	1.93e-05
1003	92	0.002071105263	1.93e-05
1003	126	0.003930709475	1.93e-05
1003	149	0.004853932606	1.93e-05
1003	168	0.006805477942	1.93e-05
1003	197	0.007592679082	1.93e-05
1003	220	0.009471643136	1.93e-05
1003	239	0.010448649562	1.93e-05
1003	258	0.011486808863	1.93e-05
1003	277	0.011971937027	1.93e-05
1003	296	0.012547456224	1.93e-05
1003	367	0.012900615363	1.93e-05
1003	386	0.015140355443	3.5515658e-05
1003	405	0.015442495926	1.93e-05
1003	428	0.015926098031	1.93e-05
1003	447	0.016575544379	1.93e-05
1004	54	0.0000193	1.93e-05
1004	73	0.000815174505	0
1004	92	0.002071105263	0
1004	126	0.003930709475	0
1004	149	0.004853932606	0
1004	168	0.006805477942	0
1004	197	0.007592679082	0
1004	220	0.009471643136	0
1004	239	0.010448649562	0
1004	258	0.011486808863	0
1004	277	0.011971937027	0
1004	296	0.012547456224	0
1004	367	0.012900615363	0
1004	386	0.015140355443	1.6215658e-05
1004	405	0.015442495926	-1.6215658e-05
1004	428	0.015926098031	0
1004	447	0.016575544379	0
1005	54	0.0000193	0
1005	73	0.000815174505	0
1005	92	0.002071105263	0
1005	126	0.003930709475	0
1005	149	0.004853932606	0
1005	168	0.006805477942	0
1005	197	0.007592679082	0
1005	220	0.009471643136	0
1005	239	0.010448649562	0
1005	258	0.011486808863	3.3881317890172e-21
1005	277	0.011971937027	3.3881317890172e-21
1005	296	0.012547456224	3.3881317890172e-21
1005	367	0.012900615363	3.3881317890172e-21
1005	386	0.015140355443	-1.5057396714286e-05
1005	405	0.015442495926	1.0810438666667e-06
1005	428	0.015926098031	1.013478625e-06
1005	447	0.016575544379	9.5386223529412e-07
1006	54	0.0000193	0
1006	73	0.000815174505	0
1006	92	0.002071105263	0
1006	126	0.003930709475	0
1006	149	0.004853932606	0
1006	168	0.006805477942	0
1006	197	0.007592679082	0
1006	220	0.009471643136	0
1006	239	0.010448649562	0
1006	258	0.011486808863	0
1006	277	0.011971937027	0
1006	296	0.012547456224	0
1006	367	0.012900615363	0
1006	386	0.015140355443	4.1761704560927e-06
1006	405	0.015442495926	4.0448957691982e-06
1006	428	0.015926098031	3.9251858364147e-06
1006	447	0.016575544379	3.8154489412241e-06
1008	29	0.0000193	64
1008	53	0.000815174505	64
1008	72	0.002071105263	64
1008	91	0.003930709475	64
1008	125	0.004853932606	64
1008	148	0.006805477942	64
1008	167	0.007592679082	64
1008	196	0.009471643136	64
1008	219	0.010448649562	64
1008	238	0.011486808863	64
1008	257	0.011971937027	64
1008	276	0.012547456224	64
1008	295	0.012900615363	64
1008	366	0.015140355443	64
1008	385	0.015442495926	64
1008	404	0.015926098031	64
1008	427	0.016575544379	64
1008	446	0.018144440497	64
1009	106	0.00402485	2048
1009	310	0.01402485	2048
1009	329	0.014546108752	2048
1009	359	0.015129955443	2048
1011	106	0.00402485	2048
1011	310	0.01402485	2048
1011	329	0.014546108752	2048
1011	359	0.015129955443	2048
1013	310	0.00402485	0.00402485
1013	329	0.01402485	0.005039246115
1013	359	0.014546108752	5.002e-05
1014	310	0.00402485	0.00402485
1014	329	0.01402485	0.001014396115
1014	359	0.014546108752	-0.004989226115
1015	310	0.00402485	0
1015	329	0.01402485	-0.0005071980575
1015	359	0.014546108752	0.002988018705
1016	310	0.00402485	0
1016	329	0.01402485	0.00050720069453323
1016	359	0.014546108752	0.0021530557885563
1018	105	0.00402485	256
1018	309	0.01402485	256
1018	328	0.014546108752	256
1018	358	0.015129955443	256
63	458	0.019807161697	0
75	458	0.019807161697	0
95	458	0.019807161697	0
110	458	0.019807161697	1369201.7268738
112	458	0.019807161697	1369201.7268738
118	458	0.019807161697	1369201.7268738
120	458	0.019807161697	1369201.7268738
134	458	0.019807161697	0
167	458	0.019807161697	1443518.2807808
176	458	0.019807161697	0
191	458	0.019807161697	0
208	458	0.019807161697	491135.48668982
212	458	0.019807161697	413587.77826511
263	458	0.019807161697	0
275	458	0.019807161697	0
295	458	0.019807161697	0
315	458	0.019807161697	0
323	458	0.019807161697	0
328	458	0.019807161697	0
330	458	0.019807161697	0
339	458	0.019807161697	0
341	458	0.019807161697	0
350	458	0.019807161697	0
352	458	0.019807161697	0
361	458	0.019807161697	0
363	458	0.019807161697	0
372	458	0.019807161697	0
374	458	0.019807161697	0
383	458	0.019807161697	0
385	458	0.019807161697	0
394	458	0.019807161697	0
396	458	0.019807161697	0
405	458	0.019807161697	0
407	458	0.019807161697	0
421	458	0.019807161697	0
431	458	0.019807161697	0
441	458	0.019807161697	0
451	458	0.019807161697	0
461	458	0.019807161697	0
471	458	0.019807161697	0
481	458	0.019807161697	0
491	458	0.019807161697	0
493	458	0.019807161697	0
506	458	0.019807161697	0
508	458	0.019807161697	0
522	458	0.019807161697	0
555	458	0.019807161697	0
564	458	0.019807161697	0
579	458	0.019807161697	1443518.2807808
585	458	0.019807161697	1332043.4499202
590	458	0.019807161697	844139.11774812
592	458	0.019807161697	844139.11774812
601	458	0.019807161697	0
603	458	0.019807161697	0
612	458	0.019807161697	0
614	458	0.019807161697	0
623	458	0.019807161697	0
625	458	0.019807161697	0
634	458	0.019807161697	0
636	458	0.019807161697	0
645	458	0.019807161697	0
647	458	0.019807161697	0
656	458	0.019807161697	0
658	458	0.019807161697	0
667	458	0.019807161697	487904.33217212
669	458	0.019807161697	487904.33217212
683	458	0.019807161697	0
693	458	0.019807161697	0
703	458	0.019807161697	0
713	458	0.019807161697	0
723	458	0.019807161697	0
733	458	0.019807161697	0
743	458	0.019807161697	0
753	458	0.019807161697	0
755	458	0.019807161697	1332043.4499202
768	458	0.019807161697	1332043.4499202
770	458	0.019807161697	1332043.4499202
784	458	0.019807161697	0
817	458	0.019807161697	1358700.4746912
826	458	0.019807161697	0
841	458	0.019807161697	0
875	458	0.019807161697	0
887	458	0.019807161697	0
902	458	0.019807161697	0
904	458	0.019807161697	0
910	458	0.019807161697	0
912	458	0.019807161697	0
926	458	0.019807161697	0
959	458	0.019807161697	0
968	458	0.019807161697	0
983	458	0.019807161697	1358700.4746912
1000	458	0.019807161697	465286.25054825
1002	458	0.019807161697	465286.25054825
1010	458	0.019807161697	413587.77826511
1012	458	0.019807161697	413587.77826511

