file 307166 1761917145                                          
version 3
run General-0-20251031-10:25:29-10382
attr configname General
attr datetime 20251031-10:25:29
attr datetimef 20251031-102529
attr experiment General
attr inifile omnetpp.ini
attr iterationvars ""
attr iterationvarsd ""
attr iterationvarsf ""
attr measurement ""
attr network inet.networks.tsn.TsnLinearNetwork
attr processid 10382
attr repetition 0
attr replication #0
attr resultdir results
attr runnumber 0
attr seedset 0
config image-path ../../inet/images
config network inet.networks.tsn.TsnLinearNetwork
config sim-time-limit 1s
config description "TSN features applied to In-Vehicle Networks"
config **.displayGateSchedules true
config **.gateFilter "\"**.eth[1].**\""
config **.gateScheduleVisualizer.height 16
config **.gateScheduleVisualizer.placementHint "\"top\""
config *.client.numApps 2
config *.client.app[*].typename UdpSourceApp
config *.client.app[*].io.destAddress "\"server\""
config *.client.app[0].display-name "speed/torque command"
config *.client.app[0].io.destPort 1000
config *.client.app[0].source.productionInterval exponential(1ms)
config *.client.app[0].source.packetLength "128B - 64B"
config *.client.app[1].display-name "brake command"
config *.client.app[1].io.destPort 1001
config *.client.app[1].source.productionInterval exponential(10ms)
config *.client.app[1].source.packetLength 256B
config *.server.numApps 2
config *.server.app[*].typename UdpSinkApp
config *.server.app[0].io.localPort 1000
config *.server.app[1].io.localPort 1001
config *.client.hasOutgoingStreams true
config *.client.bridging.streamIdentifier.identifier.mapping "[{stream: \"speed/torque command\", packetFilter: expr(udp.destPort == 1000)},\n                                                         {stream: \"brake command\", packetFilter: expr(udp.destPort == 1001)}]"
config *.client.bridging.streamCoder.encoder.mapping "[{stream: \"speed/torque command\", pcp: 7},\n                                                 {stream: \"brake command\", pcp: 5}]"
config *.switch.hasEgressTrafficShaping true
config *.switch.bridging.directionReverser.reverser.excludeEncapsulationProtocols "[\"ieee8021qctag\"]"
config *.switch.eth[*].macLayer.queue.numTrafficClasses 8
config *.switch.eth[*].macLayer.queue.*[7].display-name "speed/torque command"
config *.switch.eth[*].macLayer.queue.transmissionGate[7].offset 0ms
config *.switch.eth[*].macLayer.queue.transmissionGate[7].durations "[4ms, 6ms]"
config *.switch.eth[*].macLayer.queue.*[5].display-name "brake command"
config *.switch.eth[*].macLayer.queue.transmissionGate[5].offset 6ms
config *.switch.eth[*].macLayer.queue.transmissionGate[5].durations "[2ms, 8ms]"
config *.switch.hasIngressTrafficFiltering false
config *.switch.bridging.streamFilter.ingress.numStreams 2
config *.switch.bridging.streamFilter.ingress.classifier.mapping "{\"speed/torque command\": 0, \"brake command\": 1}"
config *.switch.bridging.streamFilter.ingress.meter[*].typename SingleRateTwoColorMeter
config *.switch.bridging.streamFilter.ingress.meter[7].display-name "speed/torque command"
config *.switch.bridging.streamFilter.ingress.meter[7].committedInformationRate 40Mbps
config *.switch.bridging.streamFilter.ingress.meter[7].committedBurstSize 10kB
config *.switch.bridging.streamFilter.ingress.meter[5].display-name "brake command"
config *.switch.bridging.streamFilter.ingress.meter[5].committedInformationRate 20Mbps
config *.switch.bridging.streamFilter.ingress.meter[5].committedBurstSize 5kB

vector 0 TsnLinearNetwork.client.bridging.directionReverser.reverser incomingPacketLengths:vector ETV
attr interpolationmode none
attr recordingmode vector
attr source "packetLength(merge(packetPushedIn, packetPulledIn))"
attr title "incoming packet lengths"
attr unit b
vector 1 TsnLinearNetwork.client.bridging.directionReverser.reverser incomingDataRate:vector ETV
attr interpolationmode linear
attr recordingmode vector
attr source "throughput(merge(packetPushedIn, packetPulledIn))"
attr title "incoming data rate"
attr unit bps
vector 2 TsnLinearNetwork.client.bridging.directionReverser.reverser outgoingPacketLengths:vector ETV
attr interpolationmode none
attr recordingmode vector
attr source "packetLength(merge(packetPushedOut, packetPulledOut))"
attr title "outgoing packet lengths"
attr unit b
vector 3 TsnLinearNetwork.client.bridging.directionReverser.reverser outgoingDataRate:vector ETV
attr interpolationmode linear
attr recordingmode vector
attr source "throughput(merge(packetPushedOut, packetPulledOut))"
attr title "outgoing data rate"
attr unit bps
vector 4 TsnLinearNetwork.client.bridging.directionReverser.reverser flowIncomingPacketLengths:vector ETV
attr interpolationmode none
attr recordingmode vector
attr source "packetLength(demuxFlow(merge(packetPushedIn, packetPulledIn)))"
attr title "flow specific incoming packet lengths"
attr unit b
vector 5 TsnLinearNetwork.client.bridging.directionReverser.reverser flowIncomingDataRate:vector ETV
attr interpolationmode linear
attr recordingmode vector
attr source "throughput(demuxFlow(merge(packetPushedIn, packetPulledIn)))"
attr title "flow specific incoming data rate"
attr unit bps
vector 6 TsnLinearNetwork.client.bridging.directionReverser.reverser flowOutgoingPacketLengths:vector ETV
attr interpolationmode none
attr recordingmode vector
attr source "packetLength(demuxFlow(merge(packetPushedOut, packetPulledOut)))"
attr title "flow specific outgoing packet lengths"
attr unit b
vector 7 TsnLinearNetwork.client.bridging.directionReverser.reverser flowOutgoingDataRate:vector ETV
attr interpolationmode linear
attr recordingmode vector
attr source "throughput(demuxFlow(merge(packetPushedOut, packetPulledOut)))"
attr title "flow specific outgoing data rate"
attr unit bps
vector 8 TsnLinearNetwork.client.bridging.directionReverser.join packetLengths:vector ETV
attr interpolationmode none
attr recordingmode vector
attr source "packetLength(merge(packetPushed, packetPulled))"
attr title "packet lengths"
attr unit b
vector 9 TsnLinearNetwork.client.bridging.directionReverser.join dataRate:vector ETV
attr interpolationmode linear
attr recordingmode vector
attr source "throughput(merge(packetPushed, packetPulled))"
attr title "data rate"
attr unit bps
vector 10 TsnLinearNetwork.client.bridging.streamIdentifier.identifier incomingPacketLengths:vector ETV
attr interpolationmode none
attr recordingmode vector
attr source "packetLength(merge(packetPushedIn, packetPulledIn))"
attr title "incoming packet lengths"
attr unit b
vector 11 TsnLinearNetwork.client.bridging.streamIdentifier.identifier incomingDataRate:vector ETV
attr interpolationmode linear
attr recordingmode vector
attr source "throughput(merge(packetPushedIn, packetPulledIn))"
attr title "incoming data rate"
attr unit bps
vector 12 TsnLinearNetwork.client.bridging.streamIdentifier.identifier outgoingPacketLengths:vector ETV
attr interpolationmode none
attr recordingmode vector
attr source "packetLength(merge(packetPushedOut, packetPulledOut))"
attr title "outgoing packet lengths"
attr unit b
vector 13 TsnLinearNetwork.client.bridging.streamIdentifier.identifier outgoingDataRate:vector ETV
attr interpolationmode linear
attr recordingmode vector
attr source "throughput(merge(packetPushedOut, packetPulledOut))"
attr title "outgoing data rate"
attr unit bps
vector 14 TsnLinearNetwork.client.bridging.streamIdentifier.identifier flowIncomingPacketLengths:vector ETV
attr interpolationmode none
attr recordingmode vector
attr source "packetLength(demuxFlow(merge(packetPushedIn, packetPulledIn)))"
attr title "flow specific incoming packet lengths"
attr unit b
vector 15 TsnLinearNetwork.client.bridging.streamIdentifier.identifier flowIncomingDataRate:vector ETV
attr interpolationmode linear
attr recordingmode vector
attr source "throughput(demuxFlow(merge(packetPushedIn, packetPulledIn)))"
attr title "flow specific incoming data rate"
attr unit bps
vector 16 TsnLinearNetwork.client.bridging.streamIdentifier.identifier flowOutgoingPacketLengths:vector ETV
attr interpolationmode none
attr recordingmode vector
attr source "packetLength(demuxFlow(merge(packetPushedOut, packetPulledOut)))"
attr title "flow specific outgoing packet lengths"
attr unit b
vector 17 TsnLinearNetwork.client.bridging.streamIdentifier.identifier flowOutgoingDataRate:vector ETV
attr interpolationmode linear
attr recordingmode vector
attr source "throughput(demuxFlow(merge(packetPushedOut, packetPulledOut)))"
attr title "flow specific outgoing data rate"
attr unit bps
vector 18 TsnLinearNetwork.client.bridging.streamCoder.decoder incomingPacketLengths:vector ETV
attr interpolationmode none
attr recordingmode vector
attr source "packetLength(merge(packetPushedIn, packetPulledIn))"
attr title "incoming packet lengths"
attr unit b
vector 19 TsnLinearNetwork.client.bridging.streamCoder.decoder incomingDataRate:vector ETV
attr interpolationmode linear
attr recordingmode vector
attr source "throughput(merge(packetPushedIn, packetPulledIn))"
attr title "incoming data rate"
attr unit bps
vector 20 TsnLinearNetwork.client.bridging.streamCoder.decoder outgoingPacketLengths:vector ETV
attr interpolationmode none
attr recordingmode vector
attr source "packetLength(merge(packetPushedOut, packetPulledOut))"
attr title "outgoing packet lengths"
attr unit b
vector 21 TsnLinearNetwork.client.bridging.streamCoder.decoder outgoingDataRate:vector ETV
attr interpolationmode linear
attr recordingmode vector
attr source "throughput(merge(packetPushedOut, packetPulledOut))"
attr title "outgoing data rate"
attr unit bps
vector 22 TsnLinearNetwork.client.bridging.streamCoder.decoder flowIncomingPacketLengths:vector ETV
attr interpolationmode none
attr recordingmode vector
attr source "packetLength(demuxFlow(merge(packetPushedIn, packetPulledIn)))"
attr title "flow specific incoming packet lengths"
attr unit b
vector 23 TsnLinearNetwork.client.bridging.streamCoder.decoder flowIncomingDataRate:vector ETV
attr interpolationmode linear
attr recordingmode vector
attr source "throughput(demuxFlow(merge(packetPushedIn, packetPulledIn)))"
attr title "flow specific incoming data rate"
attr unit bps
vector 24 TsnLinearNetwork.client.bridging.streamCoder.decoder flowOutgoingPacketLengths:vector ETV
attr interpolationmode none
attr recordingmode vector
attr source "packetLength(demuxFlow(merge(packetPushedOut, packetPulledOut)))"
attr title "flow specific outgoing packet lengths"
attr unit b
vector 25 TsnLinearNetwork.client.bridging.streamCoder.decoder flowOutgoingDataRate:vector ETV
attr interpolationmode linear
attr recordingmode vector
attr source "throughput(demuxFlow(merge(packetPushedOut, packetPulledOut)))"
attr title "flow specific outgoing data rate"
attr unit bps
vector 26 TsnLinearNetwork.client.bridging.streamCoder.encoder incomingPacketLengths:vector ETV
attr interpolationmode none
attr recordingmode vector
attr source "packetLength(merge(packetPushedIn, packetPulledIn))"
attr title "incoming packet lengths"
attr unit b
vector 27 TsnLinearNetwork.client.bridging.streamCoder.encoder incomingDataRate:vector ETV
attr interpolationmode linear
attr recordingmode vector
attr source "throughput(merge(packetPushedIn, packetPulledIn))"
attr title "incoming data rate"
attr unit bps
vector 28 TsnLinearNetwork.client.bridging.streamCoder.encoder outgoingPacketLengths:vector ETV
attr interpolationmode none
attr recordingmode vector
attr source "packetLength(merge(packetPushedOut, packetPulledOut))"
attr title "outgoing packet lengths"
attr unit b
vector 29 TsnLinearNetwork.client.bridging.streamCoder.encoder outgoingDataRate:vector ETV
attr interpolationmode linear
attr recordingmode vector
attr source "throughput(merge(packetPushedOut, packetPulledOut))"
attr title "outgoing data rate"
attr unit bps
vector 30 TsnLinearNetwork.client.bridging.streamCoder.encoder flowIncomingPacketLengths:vector ETV
attr interpolationmode none
attr recordingmode vector
attr source "packetLength(demuxFlow(merge(packetPushedIn, packetPulledIn)))"
attr title "flow specific incoming packet lengths"
attr unit b
vector 31 TsnLinearNetwork.client.bridging.streamCoder.encoder flowIncomingDataRate:vector ETV
attr interpolationmode linear
attr recordingmode vector
attr source "throughput(demuxFlow(merge(packetPushedIn, packetPulledIn)))"
attr title "flow specific incoming data rate"
attr unit bps
vector 32 TsnLinearNetwork.client.bridging.streamCoder.encoder flowOutgoingPacketLengths:vector ETV
attr interpolationmode none
attr recordingmode vector
attr source "packetLength(demuxFlow(merge(packetPushedOut, packetPulledOut)))"
attr title "flow specific outgoing packet lengths"
attr unit b
vector 33 TsnLinearNetwork.client.bridging.streamCoder.encoder flowOutgoingDataRate:vector ETV
attr interpolationmode linear
attr recordingmode vector
attr source "throughput(demuxFlow(merge(packetPushedOut, packetPulledOut)))"
attr title "flow specific outgoing data rate"
attr unit bps
vector 34 TsnLinearNetwork.client.ethernet.macHeaderInserter incomingPacketLengths:vector ETV
attr interpolationmode none
attr recordingmode vector
attr source "packetLength(merge(packetPushedIn, packetPulledIn))"
attr title "incoming packet lengths"
attr unit b
vector 35 TsnLinearNetwork.client.ethernet.macHeaderInserter incomingDataRate:vector ETV
attr interpolationmode linear
attr recordingmode vector
attr source "throughput(merge(packetPushedIn, packetPulledIn))"
attr title "incoming data rate"
attr unit bps
vector 36 TsnLinearNetwork.client.ethernet.macHeaderInserter outgoingPacketLengths:vector ETV
attr interpolationmode none
attr recordingmode vector
attr source "packetLength(merge(packetPushedOut, packetPulledOut))"
attr title "outgoing packet lengths"
attr unit b
vector 37 TsnLinearNetwork.client.ethernet.macHeaderInserter outgoingDataRate:vector ETV
attr interpolationmode linear
attr recordingmode vector
attr source "throughput(merge(packetPushedOut, packetPulledOut))"
attr title "outgoing data rate"
attr unit bps
vector 38 TsnLinearNetwork.client.ethernet.macHeaderInserter flowIncomingPacketLengths:vector ETV
attr interpolationmode none
attr recordingmode vector
attr source "packetLength(demuxFlow(merge(packetPushedIn, packetPulledIn)))"
attr title "flow specific incoming packet lengths"
attr unit b
vector 39 TsnLinearNetwork.client.ethernet.macHeaderInserter flowIncomingDataRate:vector ETV
attr interpolationmode linear
attr recordingmode vector
attr source "throughput(demuxFlow(merge(packetPushedIn, packetPulledIn)))"
attr title "flow specific incoming data rate"
attr unit bps
vector 40 TsnLinearNetwork.client.ethernet.macHeaderInserter flowOutgoingPacketLengths:vector ETV
attr interpolationmode none
attr recordingmode vector
attr source "packetLength(demuxFlow(merge(packetPushedOut, packetPulledOut)))"
attr title "flow specific outgoing packet lengths"
attr unit b
vector 41 TsnLinearNetwork.client.ethernet.macHeaderInserter flowOutgoingDataRate:vector ETV
attr interpolationmode linear
attr recordingmode vector
attr source "throughput(demuxFlow(merge(packetPushedOut, packetPulledOut)))"
attr title "flow specific outgoing data rate"
attr unit bps
vector 42 TsnLinearNetwork.client.ethernet.paddingInserter incomingPacketLengths:vector ETV
attr interpolationmode none
attr recordingmode vector
attr source "packetLength(merge(packetPushedIn, packetPulledIn))"
attr title "incoming packet lengths"
attr unit b
vector 43 TsnLinearNetwork.client.ethernet.paddingInserter incomingDataRate:vector ETV
attr interpolationmode linear
attr recordingmode vector
attr source "throughput(merge(packetPushedIn, packetPulledIn))"
attr title "incoming data rate"
attr unit bps
vector 44 TsnLinearNetwork.client.ethernet.paddingInserter outgoingPacketLengths:vector ETV
attr interpolationmode none
attr recordingmode vector
attr source "packetLength(merge(packetPushedOut, packetPulledOut))"
attr title "outgoing packet lengths"
attr unit b
vector 45 TsnLinearNetwork.client.ethernet.paddingInserter outgoingDataRate:vector ETV
attr interpolationmode linear
attr recordingmode vector
attr source "throughput(merge(packetPushedOut, packetPulledOut))"
attr title "outgoing data rate"
attr unit bps
vector 46 TsnLinearNetwork.client.ethernet.paddingInserter flowIncomingPacketLengths:vector ETV
attr interpolationmode none
attr recordingmode vector
attr source "packetLength(demuxFlow(merge(packetPushedIn, packetPulledIn)))"
attr title "flow specific incoming packet lengths"
attr unit b
vector 47 TsnLinearNetwork.client.ethernet.paddingInserter flowIncomingDataRate:vector ETV
attr interpolationmode linear
attr recordingmode vector
attr source "throughput(demuxFlow(merge(packetPushedIn, packetPulledIn)))"
attr title "flow specific incoming data rate"
attr unit bps
vector 48 TsnLinearNetwork.client.ethernet.paddingInserter flowOutgoingPacketLengths:vector ETV
attr interpolationmode none
attr recordingmode vector
attr source "packetLength(demuxFlow(merge(packetPushedOut, packetPulledOut)))"
attr title "flow specific outgoing packet lengths"
attr unit b
vector 49 TsnLinearNetwork.client.ethernet.paddingInserter flowOutgoingDataRate:vector ETV
attr interpolationmode linear
attr recordingmode vector
attr source "throughput(demuxFlow(merge(packetPushedOut, packetPulledOut)))"
attr title "flow specific outgoing data rate"
attr unit bps
vector 50 TsnLinearNetwork.client.ethernet.fcsInserter incomingPacketLengths:vector ETV
attr interpolationmode none
attr recordingmode vector
attr source "packetLength(merge(packetPushedIn, packetPulledIn))"
attr title "incoming packet lengths"
attr unit b
vector 51 TsnLinearNetwork.client.ethernet.fcsInserter incomingDataRate:vector ETV
attr interpolationmode linear
attr recordingmode vector
attr source "throughput(merge(packetPushedIn, packetPulledIn))"
attr title "incoming data rate"
attr unit bps
vector 52 TsnLinearNetwork.client.ethernet.fcsInserter outgoingPacketLengths:vector ETV
attr interpolationmode none
attr recordingmode vector
attr source "packetLength(merge(packetPushedOut, packetPulledOut))"
attr title "outgoing packet lengths"
attr unit b
vector 53 TsnLinearNetwork.client.ethernet.fcsInserter outgoingDataRate:vector ETV
attr interpolationmode linear
attr recordingmode vector
attr source "throughput(merge(packetPushedOut, packetPulledOut))"
attr title "outgoing data rate"
attr unit bps
vector 54 TsnLinearNetwork.client.ethernet.fcsInserter flowIncomingPacketLengths:vector ETV
attr interpolationmode none
attr recordingmode vector
attr source "packetLength(demuxFlow(merge(packetPushedIn, packetPulledIn)))"
attr title "flow specific incoming packet lengths"
attr unit b
vector 55 TsnLinearNetwork.client.ethernet.fcsInserter flowIncomingDataRate:vector ETV
attr interpolationmode linear
attr recordingmode vector
attr source "throughput(demuxFlow(merge(packetPushedIn, packetPulledIn)))"
attr title "flow specific incoming data rate"
attr unit bps
vector 56 TsnLinearNetwork.client.ethernet.fcsInserter flowOutgoingPacketLengths:vector ETV
attr interpolationmode none
attr recordingmode vector
attr source "packetLength(demuxFlow(merge(packetPushedOut, packetPulledOut)))"
attr title "flow specific outgoing packet lengths"
attr unit b
vector 57 TsnLinearNetwork.client.ethernet.fcsInserter flowOutgoingDataRate:vector ETV
attr interpolationmode linear
attr recordingmode vector
attr source "throughput(demuxFlow(merge(packetPushedOut, packetPulledOut)))"
attr title "flow specific outgoing data rate"
attr unit bps
vector 58 TsnLinearNetwork.client.ethernet.macHeaderChecker incomingPacketLengths:vector ETV
attr interpolationmode none
attr recordingmode vector
attr source "packetLength(merge(packetPushedIn, packetPulledIn))"
attr title "incoming packet lengths"
attr unit b
vector 59 TsnLinearNetwork.client.ethernet.macHeaderChecker incomingDataRate:vector ETV
attr interpolationmode linear
attr recordingmode vector
attr source "throughput(merge(packetPushedIn, packetPulledIn))"
attr title "incoming data rate"
attr unit bps
vector 60 TsnLinearNetwork.client.ethernet.macHeaderChecker outgoingPacketLengths:vector ETV
attr interpolationmode none
attr recordingmode vector
attr source "packetLength(merge(packetPushedOut, packetPulledOut))"
attr title "outgoing packet lengths"
attr unit b
vector 61 TsnLinearNetwork.client.ethernet.macHeaderChecker outgoingDataRate:vector ETV
attr interpolationmode linear
attr recordingmode vector
attr source "throughput(merge(packetPushedOut, packetPulledOut))"
attr title "outgoing data rate"
attr unit bps
vector 62 TsnLinearNetwork.client.ethernet.macHeaderChecker droppedPacketLengths:vector ETV
attr interpolationmode none
attr recordingmode vector
attr source packetLength(packetDropped)
attr title "dropped packet lengths"
attr unit b
vector 63 TsnLinearNetwork.client.ethernet.macHeaderChecker droppedDataRate:vector ETV
attr interpolationmode linear
attr recordingmode vector
attr source throughput(packetDropped)
attr title "dropped data rate"
attr unit bps
vector 64 TsnLinearNetwork.client.ethernet.macHeaderChecker flowIncomingPacketLengths:vector ETV
attr interpolationmode none
attr recordingmode vector
attr source "packetLength(demuxFlow(merge(packetPushedIn, packetPulledIn)))"
attr title "flow specific incoming packet lengths"
attr unit b
vector 65 TsnLinearNetwork.client.ethernet.macHeaderChecker flowIncomingDataRate:vector ETV
attr interpolationmode linear
attr recordingmode vector
attr source "throughput(demuxFlow(merge(packetPushedIn, packetPulledIn)))"
attr title "flow specific incoming data rate"
attr unit bps
vector 66 TsnLinearNetwork.client.ethernet.macHeaderChecker flowOutgoingPacketLengths:vector ETV
attr interpolationmode none
attr recordingmode vector
attr source "packetLength(demuxFlow(merge(packetPushedOut, packetPulledOut)))"
attr title "flow specific outgoing packet lengths"
attr unit b
vector 67 TsnLinearNetwork.client.ethernet.macHeaderChecker flowOutgoingDataRate:vector ETV
attr interpolationmode linear
attr recordingmode vector
attr source "throughput(demuxFlow(merge(packetPushedOut, packetPulledOut)))"
attr title "flow specific outgoing data rate"
attr unit bps
vector 68 TsnLinearNetwork.client.ethernet.macHeaderChecker flowDroppedPacketLengths:vector ETV
attr interpolationmode none
attr recordingmode vector
attr source packetLength(demuxFlow(packetDropped))
attr title "flow specific dropped packet lengths"
attr unit b
vector 69 TsnLinearNetwork.client.ethernet.macHeaderChecker flowDroppedDataRate:vector ETV
attr interpolationmode linear
attr recordingmode vector
attr source throughput(demuxFlow(packetDropped))
attr title "flow specific dropped data rate"
attr unit bps
vector 70 TsnLinearNetwork.client.ethernet.fcsChecker incomingPacketLengths:vector ETV
attr interpolationmode none
attr recordingmode vector
attr source "packetLength(merge(packetPushedIn, packetPulledIn))"
attr title "incoming packet lengths"
attr unit b
vector 71 TsnLinearNetwork.client.ethernet.fcsChecker incomingDataRate:vector ETV
attr interpolationmode linear
attr recordingmode vector
attr source "throughput(merge(packetPushedIn, packetPulledIn))"
attr title "incoming data rate"
attr unit bps
vector 72 TsnLinearNetwork.client.ethernet.fcsChecker outgoingPacketLengths:vector ETV
attr interpolationmode none
attr recordingmode vector
attr source "packetLength(merge(packetPushedOut, packetPulledOut))"
attr title "outgoing packet lengths"
attr unit b
vector 73 TsnLinearNetwork.client.ethernet.fcsChecker outgoingDataRate:vector ETV
attr interpolationmode linear
attr recordingmode vector
attr source "throughput(merge(packetPushedOut, packetPulledOut))"
attr title "outgoing data rate"
attr unit bps
vector 74 TsnLinearNetwork.client.ethernet.fcsChecker droppedPacketLengths:vector ETV
attr interpolationmode none
attr recordingmode vector
attr source packetLength(packetDropped)
attr title "dropped packet lengths"
attr unit b
vector 75 TsnLinearNetwork.client.ethernet.fcsChecker droppedDataRate:vector ETV
attr interpolationmode linear
attr recordingmode vector
attr source throughput(packetDropped)
attr title "dropped data rate"
attr unit bps
vector 76 TsnLinearNetwork.client.ethernet.fcsChecker flowIncomingPacketLengths:vector ETV
attr interpolationmode none
attr recordingmode vector
attr source "packetLength(demuxFlow(merge(packetPushedIn, packetPulledIn)))"
attr title "flow specific incoming packet lengths"
attr unit b
vector 77 TsnLinearNetwork.client.ethernet.fcsChecker flowIncomingDataRate:vector ETV
attr interpolationmode linear
attr recordingmode vector
attr source "throughput(demuxFlow(merge(packetPushedIn, packetPulledIn)))"
attr title "flow specific incoming data rate"
attr unit bps
vector 78 TsnLinearNetwork.client.ethernet.fcsChecker flowOutgoingPacketLengths:vector ETV
attr interpolationmode none
attr recordingmode vector
attr source "packetLength(demuxFlow(merge(packetPushedOut, packetPulledOut)))"
attr title "flow specific outgoing packet lengths"
attr unit b
vector 79 TsnLinearNetwork.client.ethernet.fcsChecker flowOutgoingDataRate:vector ETV
attr interpolationmode linear
attr recordingmode vector
attr source "throughput(demuxFlow(merge(packetPushedOut, packetPulledOut)))"
attr title "flow specific outgoing data rate"
attr unit bps
vector 80 TsnLinearNetwork.client.ethernet.fcsChecker flowDroppedPacketLengths:vector ETV
attr interpolationmode none
attr recordingmode vector
attr source packetLength(demuxFlow(packetDropped))
attr title "flow specific dropped packet lengths"
attr unit b
vector 81 TsnLinearNetwork.client.ethernet.fcsChecker flowDroppedDataRate:vector ETV
attr interpolationmode linear
attr recordingmode vector
attr source throughput(demuxFlow(packetDropped))
attr title "flow specific dropped data rate"
attr unit bps
vector 82 TsnLinearNetwork.client.ieee8021q.qTagHeaderInserter incomingPacketLengths:vector ETV
attr interpolationmode none
attr recordingmode vector
attr source "packetLength(merge(packetPushedIn, packetPulledIn))"
attr title "incoming packet lengths"
attr unit b
vector 83 TsnLinearNetwork.client.ieee8021q.qTagHeaderInserter incomingDataRate:vector ETV
attr interpolationmode linear
attr recordingmode vector
attr source "throughput(merge(packetPushedIn, packetPulledIn))"
attr title "incoming data rate"
attr unit bps
vector 84 TsnLinearNetwork.client.ieee8021q.qTagHeaderInserter outgoingPacketLengths:vector ETV
attr interpolationmode none
attr recordingmode vector
attr source "packetLength(merge(packetPushedOut, packetPulledOut))"
attr title "outgoing packet lengths"
attr unit b
vector 85 TsnLinearNetwork.client.ieee8021q.qTagHeaderInserter outgoingDataRate:vector ETV
attr interpolationmode linear
attr recordingmode vector
attr source "throughput(merge(packetPushedOut, packetPulledOut))"
attr title "outgoing data rate"
attr unit bps
vector 86 TsnLinearNetwork.client.ieee8021q.qTagHeaderInserter flowIncomingPacketLengths:vector ETV
attr interpolationmode none
attr recordingmode vector
attr source "packetLength(demuxFlow(merge(packetPushedIn, packetPulledIn)))"
attr title "flow specific incoming packet lengths"
attr unit b
vector 87 TsnLinearNetwork.client.ieee8021q.qTagHeaderInserter flowIncomingDataRate:vector ETV
attr interpolationmode linear
attr recordingmode vector
attr source "throughput(demuxFlow(merge(packetPushedIn, packetPulledIn)))"
attr title "flow specific incoming data rate"
attr unit bps
vector 88 TsnLinearNetwork.client.ieee8021q.qTagHeaderInserter flowOutgoingPacketLengths:vector ETV
attr interpolationmode none
attr recordingmode vector
attr source "packetLength(demuxFlow(merge(packetPushedOut, packetPulledOut)))"
attr title "flow specific outgoing packet lengths"
attr unit b
vector 89 TsnLinearNetwork.client.ieee8021q.qTagHeaderInserter flowOutgoingDataRate:vector ETV
attr interpolationmode linear
attr recordingmode vector
attr source "throughput(demuxFlow(merge(packetPushedOut, packetPulledOut)))"
attr title "flow specific outgoing data rate"
attr unit bps
vector 90 TsnLinearNetwork.client.ieee8021q.qTagHeaderChecker incomingPacketLengths:vector ETV
attr interpolationmode none
attr recordingmode vector
attr source "packetLength(merge(packetPushedIn, packetPulledIn))"
attr title "incoming packet lengths"
attr unit b
vector 91 TsnLinearNetwork.client.ieee8021q.qTagHeaderChecker incomingDataRate:vector ETV
attr interpolationmode linear
attr recordingmode vector
attr source "throughput(merge(packetPushedIn, packetPulledIn))"
attr title "incoming data rate"
attr unit bps
vector 92 TsnLinearNetwork.client.ieee8021q.qTagHeaderChecker outgoingPacketLengths:vector ETV
attr interpolationmode none
attr recordingmode vector
attr source "packetLength(merge(packetPushedOut, packetPulledOut))"
attr title "outgoing packet lengths"
attr unit b
vector 93 TsnLinearNetwork.client.ieee8021q.qTagHeaderChecker outgoingDataRate:vector ETV
attr interpolationmode linear
attr recordingmode vector
attr source "throughput(merge(packetPushedOut, packetPulledOut))"
attr title "outgoing data rate"
attr unit bps
vector 94 TsnLinearNetwork.client.ieee8021q.qTagHeaderChecker droppedPacketLengths:vector ETV
attr interpolationmode none
attr recordingmode vector
attr source packetLength(packetDropped)
attr title "dropped packet lengths"
attr unit b
vector 95 TsnLinearNetwork.client.ieee8021q.qTagHeaderChecker droppedDataRate:vector ETV
attr interpolationmode linear
attr recordingmode vector
attr source throughput(packetDropped)
attr title "dropped data rate"
attr unit bps
vector 96 TsnLinearNetwork.client.ieee8021q.qTagHeaderChecker flowIncomingPacketLengths:vector ETV
attr interpolationmode none
attr recordingmode vector
attr source "packetLength(demuxFlow(merge(packetPushedIn, packetPulledIn)))"
attr title "flow specific incoming packet lengths"
attr unit b
vector 97 TsnLinearNetwork.client.ieee8021q.qTagHeaderChecker flowIncomingDataRate:vector ETV
attr interpolationmode linear
attr recordingmode vector
attr source "throughput(demuxFlow(merge(packetPushedIn, packetPulledIn)))"
attr title "flow specific incoming data rate"
attr unit bps
vector 98 TsnLinearNetwork.client.ieee8021q.qTagHeaderChecker flowOutgoingPacketLengths:vector ETV
attr interpolationmode none
attr recordingmode vector
attr source "packetLength(demuxFlow(merge(packetPushedOut, packetPulledOut)))"
attr title "flow specific outgoing packet lengths"
attr unit b
vector 99 TsnLinearNetwork.client.ieee8021q.qTagHeaderChecker flowOutgoingDataRate:vector ETV
attr interpolationmode linear
attr recordingmode vector
attr source "throughput(demuxFlow(merge(packetPushedOut, packetPulledOut)))"
attr title "flow specific outgoing data rate"
attr unit bps
vector 100 TsnLinearNetwork.client.ieee8021q.qTagHeaderChecker flowDroppedPacketLengths:vector ETV
attr interpolationmode none
attr recordingmode vector
attr source packetLength(demuxFlow(packetDropped))
attr title "flow specific dropped packet lengths"
attr unit b
vector 101 TsnLinearNetwork.client.ieee8021q.qTagHeaderChecker flowDroppedDataRate:vector ETV
attr interpolationmode linear
attr recordingmode vector
attr source throughput(demuxFlow(packetDropped))
attr title "flow specific dropped data rate"
attr unit bps
vector 102 TsnLinearNetwork.client.lo[0].lo rcvdPkFromHl:vector(packetBytes) ETV
attr interpolationmode none
attr recordingmode vector(packetBytes)
attr source packetReceivedFromUpper
attr title "packets received from higher layer, packetBytes"
vector 103 TsnLinearNetwork.client.lo[0].lo passedUpPk:vector(packetBytes) ETV
attr interpolationmode none
attr recordingmode vector(packetBytes)
attr source packetSentToUpper
attr title "packets passed to higher layer, packetBytes"
vector 104 TsnLinearNetwork.client.lo[0] packetDropInterfaceDown:vector(packetBytes) ETV
attr interpolationmode none
attr recordingmode vector(packetBytes)
attr source packetDropReasonIsInterfaceDown(packetDropped)
attr title "packet drops: interface down, packetBytes"
vector 105 TsnLinearNetwork.client.lo[0] packetDropNoCarrier:vector(packetBytes) ETV
attr interpolationmode none
attr recordingmode vector(packetBytes)
attr source packetDropReasonIsNoCarrier(packetDropped)
attr title "packet drops: no carrier, packetBytes"
vector 106 TsnLinearNetwork.client.eth[0].macLayer.queue queueLength:vector ETV
attr autoWarmupFilter false
attr interpolationmode sample-hold
attr recordingmode vector
attr source "warmup(atomic(constant0(packetPushEnded) + count(packetPushStarted) - count(packetPulled) - count(packetRemoved) - count(packetDropped)))"
attr title "queue length"
attr unit pk
vector 107 TsnLinearNetwork.client.eth[0].macLayer.queue queueBitLength:vector ETV
attr autoWarmupFilter false
attr interpolationmode sample-hold
attr recordingmode vector
attr source "warmup(atomic(constant0(packetPushEnded) + sum(packetLength(packetPushStarted)) - sum(packetLength(packetPulled)) - sum(packetLength(packetRemoved)) - sum(packetLength(packetDropped))))"
attr title "queue bit length"
attr unit b
vector 108 TsnLinearNetwork.client.eth[0].macLayer.queue queueingTime:vector ETV
attr interpolationmode none
attr recordingmode vector
attr source queueingTime(packetPulled)
attr title "queueing times"
attr unit s
vector 109 TsnLinearNetwork.client.eth[0].macLayer.queue incomingPacketLengths:vector ETV
attr interpolationmode none
attr recordingmode vector
attr source packetLength(packetPushStarted)
attr title "incoming packet lengths"
attr unit b
vector 110 TsnLinearNetwork.client.eth[0].macLayer.queue incomingDataRate:vector ETV
attr interpolationmode linear
attr recordingmode vector
attr source throughput(packetPushStarted)
attr title "incoming datarate"
attr unit bps
vector 111 TsnLinearNetwork.client.eth[0].macLayer.queue outgoingPacketLengths:vector ETV
attr interpolationmode none
attr recordingmode vector
attr source packetLength(packetPulled)
attr title "outgoing packet lengths"
attr unit b
vector 112 TsnLinearNetwork.client.eth[0].macLayer.queue outgoingDataRate:vector ETV
attr interpolationmode linear
attr recordingmode vector
attr source throughput(packetPulled)
attr title "outgoing datarate"
attr unit bps
vector 113 TsnLinearNetwork.client.eth[0].macLayer.queue droppedPacketLengthsQueueOverflow:vector ETV
attr interpolationmode none
attr recordingmode vector
attr source packetLength(packetDropReasonIsQueueOverflow(packetDropped))
attr title "dropped packet lengths: queue overflow"
attr unit b
vector 114 TsnLinearNetwork.client.eth[0].macLayer.queue flowQueueingTime:vector ETV
attr interpolationmode none
attr recordingmode vector
attr source queueingTime(demuxFlow(packetPulled))
attr title "flow queueing times"
attr unit s
vector 115 TsnLinearNetwork.client.eth[0].macLayer.queue flowIncomingDataRate:vector ETV
attr interpolationmode linear
attr recordingmode vector
attr source throughput(flowPacketLength(demuxFlow(packetPushStarted)))
attr title "flow specific incoming data rate"
attr unit bps
vector 116 TsnLinearNetwork.client.eth[0].macLayer.queue flowOutgoingDataRate:vector ETV
attr interpolationmode linear
attr recordingmode vector
attr source throughput(flowPacketLength(demuxFlow(packetPulled)))
attr title "flow specific outgoing data rate"
attr unit bps
vector 117 TsnLinearNetwork.client.eth[0].macLayer.server incomingPacketLengths:vector ETV
attr interpolationmode none
attr recordingmode vector
attr source packetLength(packetPulled)
attr title "incoming packet lengths"
attr unit b
vector 118 TsnLinearNetwork.client.eth[0].macLayer.server incomingDataRate:vector ETV
attr interpolationmode linear
attr recordingmode vector
attr source throughput(packetPulled)
attr title "incoming datarate"
attr unit bps
vector 119 TsnLinearNetwork.client.eth[0].macLayer.server outgoingPacketLengths:vector ETV
attr interpolationmode none
attr recordingmode vector
attr source packetLength(packetPushed)
attr title "outgoing packet lengths"
attr unit b
vector 120 TsnLinearNetwork.client.eth[0].macLayer.server outgoingDataRate:vector ETV
attr interpolationmode linear
attr recordingmode vector
attr source throughput(packetPushed)
attr title "outgoing datarate"
attr unit bps
vector 121 TsnLinearNetwork.client.eth[0].macLayer.outboundEmitter incomingPacketLengths:vector ETV
attr interpolationmode none
attr recordingmode vector
attr source "packetLength(merge(packetPushedIn, packetPulledIn))"
attr title "incoming packet lengths"
attr unit b
vector 122 TsnLinearNetwork.client.eth[0].macLayer.outboundEmitter incomingDataRate:vector ETV
attr interpolationmode linear
attr recordingmode vector
attr source "throughput(merge(packetPushedIn, packetPulledIn))"
attr title "incoming data rate"
attr unit bps
vector 123 TsnLinearNetwork.client.eth[0].macLayer.outboundEmitter outgoingPacketLengths:vector ETV
attr interpolationmode none
attr recordingmode vector
attr source "packetLength(merge(packetPushedOut, packetPulledOut))"
attr title "outgoing packet lengths"
attr unit b
vector 124 TsnLinearNetwork.client.eth[0].macLayer.outboundEmitter outgoingDataRate:vector ETV
attr interpolationmode linear
attr recordingmode vector
attr source "throughput(merge(packetPushedOut, packetPulledOut))"
attr title "outgoing data rate"
attr unit bps
vector 125 TsnLinearNetwork.client.eth[0].macLayer.outboundEmitter flowIncomingPacketLengths:vector ETV
attr interpolationmode none
attr recordingmode vector
attr source "packetLength(demuxFlow(merge(packetPushedIn, packetPulledIn)))"
attr title "flow specific incoming packet lengths"
attr unit b
vector 126 TsnLinearNetwork.client.eth[0].macLayer.outboundEmitter flowIncomingDataRate:vector ETV
attr interpolationmode linear
attr recordingmode vector
attr source "throughput(demuxFlow(merge(packetPushedIn, packetPulledIn)))"
attr title "flow specific incoming data rate"
attr unit bps
vector 127 TsnLinearNetwork.client.eth[0].macLayer.outboundEmitter flowOutgoingPacketLengths:vector ETV
attr interpolationmode none
attr recordingmode vector
attr source "packetLength(demuxFlow(merge(packetPushedOut, packetPulledOut)))"
attr title "flow specific outgoing packet lengths"
attr unit b
vector 128 TsnLinearNetwork.client.eth[0].macLayer.outboundEmitter flowOutgoingDataRate:vector ETV
attr interpolationmode linear
attr recordingmode vector
attr source "throughput(demuxFlow(merge(packetPushedOut, packetPulledOut)))"
attr title "flow specific outgoing data rate"
attr unit bps
vector 129 TsnLinearNetwork.client.eth[0].macLayer.fcsChecker incomingPacketLengths:vector ETV
attr interpolationmode none
attr recordingmode vector
attr source "packetLength(merge(packetPushedIn, packetPulledIn))"
attr title "incoming packet lengths"
attr unit b
vector 130 TsnLinearNetwork.client.eth[0].macLayer.fcsChecker incomingDataRate:vector ETV
attr interpolationmode linear
attr recordingmode vector
attr source "throughput(merge(packetPushedIn, packetPulledIn))"
attr title "incoming data rate"
attr unit bps
vector 131 TsnLinearNetwork.client.eth[0].macLayer.fcsChecker outgoingPacketLengths:vector ETV
attr interpolationmode none
attr recordingmode vector
attr source "packetLength(merge(packetPushedOut, packetPulledOut))"
attr title "outgoing packet lengths"
attr unit b
vector 132 TsnLinearNetwork.client.eth[0].macLayer.fcsChecker outgoingDataRate:vector ETV
attr interpolationmode linear
attr recordingmode vector
attr source "throughput(merge(packetPushedOut, packetPulledOut))"
attr title "outgoing data rate"
attr unit bps
vector 133 TsnLinearNetwork.client.eth[0].macLayer.fcsChecker droppedPacketLengths:vector ETV
attr interpolationmode none
attr recordingmode vector
attr source packetLength(packetDropped)
attr title "dropped packet lengths"
attr unit b
vector 134 TsnLinearNetwork.client.eth[0].macLayer.fcsChecker droppedDataRate:vector ETV
attr interpolationmode linear
attr recordingmode vector
attr source throughput(packetDropped)
attr title "dropped data rate"
attr unit bps
vector 135 TsnLinearNetwork.client.eth[0].macLayer.fcsChecker flowIncomingPacketLengths:vector ETV
attr interpolationmode none
attr recordingmode vector
attr source "packetLength(demuxFlow(merge(packetPushedIn, packetPulledIn)))"
attr title "flow specific incoming packet lengths"
attr unit b
vector 136 TsnLinearNetwork.client.eth[0].macLayer.fcsChecker flowIncomingDataRate:vector ETV
attr interpolationmode linear
attr recordingmode vector
attr source "throughput(demuxFlow(merge(packetPushedIn, packetPulledIn)))"
attr title "flow specific incoming data rate"
attr unit bps
vector 137 TsnLinearNetwork.client.eth[0].macLayer.fcsChecker flowOutgoingPacketLengths:vector ETV
attr interpolationmode none
attr recordingmode vector
attr source "packetLength(demuxFlow(merge(packetPushedOut, packetPulledOut)))"
attr title "flow specific outgoing packet lengths"
attr unit b
vector 138 TsnLinearNetwork.client.eth[0].macLayer.fcsChecker flowOutgoingDataRate:vector ETV
attr interpolationmode linear
attr recordingmode vector
attr source "throughput(demuxFlow(merge(packetPushedOut, packetPulledOut)))"
attr title "flow specific outgoing data rate"
attr unit bps
vector 139 TsnLinearNetwork.client.eth[0].macLayer.fcsChecker flowDroppedPacketLengths:vector ETV
attr interpolationmode none
attr recordingmode vector
attr source packetLength(demuxFlow(packetDropped))
attr title "flow specific dropped packet lengths"
attr unit b
vector 140 TsnLinearNetwork.client.eth[0].macLayer.fcsChecker flowDroppedDataRate:vector ETV
attr interpolationmode linear
attr recordingmode vector
attr source throughput(demuxFlow(packetDropped))
attr title "flow specific dropped data rate"
attr unit bps
vector 141 TsnLinearNetwork.client.eth[0].macLayer.inboundEmitter incomingPacketLengths:vector ETV
attr interpolationmode none
attr recordingmode vector
attr source "packetLength(merge(packetPushedIn, packetPulledIn))"
attr title "incoming packet lengths"
attr unit b
vector 142 TsnLinearNetwork.client.eth[0].macLayer.inboundEmitter incomingDataRate:vector ETV
attr interpolationmode linear
attr recordingmode vector
attr source "throughput(merge(packetPushedIn, packetPulledIn))"
attr title "incoming data rate"
attr unit bps
vector 143 TsnLinearNetwork.client.eth[0].macLayer.inboundEmitter outgoingPacketLengths:vector ETV
attr interpolationmode none
attr recordingmode vector
attr source "packetLength(merge(packetPushedOut, packetPulledOut))"
attr title "outgoing packet lengths"
attr unit b
vector 144 TsnLinearNetwork.client.eth[0].macLayer.inboundEmitter outgoingDataRate:vector ETV
attr interpolationmode linear
attr recordingmode vector
attr source "throughput(merge(packetPushedOut, packetPulledOut))"
attr title "outgoing data rate"
attr unit bps
vector 145 TsnLinearNetwork.client.eth[0].macLayer.inboundEmitter flowIncomingPacketLengths:vector ETV
attr interpolationmode none
attr recordingmode vector
attr source "packetLength(demuxFlow(merge(packetPushedIn, packetPulledIn)))"
attr title "flow specific incoming packet lengths"
attr unit b
vector 146 TsnLinearNetwork.client.eth[0].macLayer.inboundEmitter flowIncomingDataRate:vector ETV
attr interpolationmode linear
attr recordingmode vector
attr source "throughput(demuxFlow(merge(packetPushedIn, packetPulledIn)))"
attr title "flow specific incoming data rate"
attr unit bps
vector 147 TsnLinearNetwork.client.eth[0].macLayer.inboundEmitter flowOutgoingPacketLengths:vector ETV
attr interpolationmode none
attr recordingmode vector
attr source "packetLength(demuxFlow(merge(packetPushedOut, packetPulledOut)))"
attr title "flow specific outgoing packet lengths"
attr unit b
vector 148 TsnLinearNetwork.client.eth[0].macLayer.inboundEmitter flowOutgoingDataRate:vector ETV
attr interpolationmode linear
attr recordingmode vector
attr source "throughput(demuxFlow(merge(packetPushedOut, packetPulledOut)))"
attr title "flow specific outgoing data rate"
attr unit bps
vector 149 TsnLinearNetwork.client.eth[0].phyLayer.phyHeaderInserter incomingPacketLengths:vector ETV
attr interpolationmode none
attr recordingmode vector
attr source "packetLength(merge(packetPushedIn, packetPulledIn))"
attr title "incoming packet lengths"
attr unit b
vector 150 TsnLinearNetwork.client.eth[0].phyLayer.phyHeaderInserter incomingDataRate:vector ETV
attr interpolationmode linear
attr recordingmode vector
attr source "throughput(merge(packetPushedIn, packetPulledIn))"
attr title "incoming data rate"
attr unit bps
vector 151 TsnLinearNetwork.client.eth[0].phyLayer.phyHeaderInserter outgoingPacketLengths:vector ETV
attr interpolationmode none
attr recordingmode vector
attr source "packetLength(merge(packetPushedOut, packetPulledOut))"
attr title "outgoing packet lengths"
attr unit b
vector 152 TsnLinearNetwork.client.eth[0].phyLayer.phyHeaderInserter outgoingDataRate:vector ETV
attr interpolationmode linear
attr recordingmode vector
attr source "throughput(merge(packetPushedOut, packetPulledOut))"
attr title "outgoing data rate"
attr unit bps
vector 153 TsnLinearNetwork.client.eth[0].phyLayer.phyHeaderInserter flowIncomingPacketLengths:vector ETV
attr interpolationmode none
attr recordingmode vector
attr source "packetLength(demuxFlow(merge(packetPushedIn, packetPulledIn)))"
attr title "flow specific incoming packet lengths"
attr unit b
vector 154 TsnLinearNetwork.client.eth[0].phyLayer.phyHeaderInserter flowIncomingDataRate:vector ETV
attr interpolationmode linear
attr recordingmode vector
attr source "throughput(demuxFlow(merge(packetPushedIn, packetPulledIn)))"
attr title "flow specific incoming data rate"
attr unit bps
vector 155 TsnLinearNetwork.client.eth[0].phyLayer.phyHeaderInserter flowOutgoingPacketLengths:vector ETV
attr interpolationmode none
attr recordingmode vector
attr source "packetLength(demuxFlow(merge(packetPushedOut, packetPulledOut)))"
attr title "flow specific outgoing packet lengths"
attr unit b
vector 156 TsnLinearNetwork.client.eth[0].phyLayer.phyHeaderInserter flowOutgoingDataRate:vector ETV
attr interpolationmode linear
attr recordingmode vector
attr source "throughput(demuxFlow(merge(packetPushedOut, packetPulledOut)))"
attr title "flow specific outgoing data rate"
attr unit bps
vector 157 TsnLinearNetwork.client.eth[0].phyLayer.interFrameGapInserter interpacketGap:vector ETV
attr interpolationmode sample-hold
attr recordingmode vector
attr source "count(interpacketGapStarted) - count(interpacketGapEnded)"
attr title "interpacket gap state"
attr type int
vector 158 TsnLinearNetwork.client.eth[0].phyLayer.outboundEmitter incomingPacketLengths:vector ETV
attr interpolationmode none
attr recordingmode vector
attr source "packetLength(merge(packetPushedIn, packetPulledIn))"
attr title "incoming packet lengths"
attr unit b
vector 159 TsnLinearNetwork.client.eth[0].phyLayer.outboundEmitter incomingDataRate:vector ETV
attr interpolationmode linear
attr recordingmode vector
attr source "throughput(merge(packetPushedIn, packetPulledIn))"
attr title "incoming data rate"
attr unit bps
vector 160 TsnLinearNetwork.client.eth[0].phyLayer.outboundEmitter outgoingPacketLengths:vector ETV
attr interpolationmode none
attr recordingmode vector
attr source "packetLength(merge(packetPushedOut, packetPulledOut))"
attr title "outgoing packet lengths"
attr unit b
vector 161 TsnLinearNetwork.client.eth[0].phyLayer.outboundEmitter outgoingDataRate:vector ETV
attr interpolationmode linear
attr recordingmode vector
attr source "throughput(merge(packetPushedOut, packetPulledOut))"
attr title "outgoing data rate"
attr unit bps
vector 162 TsnLinearNetwork.client.eth[0].phyLayer.outboundEmitter flowIncomingPacketLengths:vector ETV
attr interpolationmode none
attr recordingmode vector
attr source "packetLength(demuxFlow(merge(packetPushedIn, packetPulledIn)))"
attr title "flow specific incoming packet lengths"
attr unit b
vector 163 TsnLinearNetwork.client.eth[0].phyLayer.outboundEmitter flowIncomingDataRate:vector ETV
attr interpolationmode linear
attr recordingmode vector
attr source "throughput(demuxFlow(merge(packetPushedIn, packetPulledIn)))"
attr title "flow specific incoming data rate"
attr unit bps
vector 164 TsnLinearNetwork.client.eth[0].phyLayer.outboundEmitter flowOutgoingPacketLengths:vector ETV
attr interpolationmode none
attr recordingmode vector
attr source "packetLength(demuxFlow(merge(packetPushedOut, packetPulledOut)))"
attr title "flow specific outgoing packet lengths"
attr unit b
vector 165 TsnLinearNetwork.client.eth[0].phyLayer.outboundEmitter flowOutgoingDataRate:vector ETV
attr interpolationmode linear
attr recordingmode vector
attr source "throughput(demuxFlow(merge(packetPushedOut, packetPulledOut)))"
attr title "flow specific outgoing data rate"
attr unit bps
vector 166 TsnLinearNetwork.client.eth[0].phyLayer.transmitter transmitting:vector ETV
attr enum IDLE,TRANSMITTING
attr interpolationmode sample-hold
attr recordingmode vector
attr source "count(transmissionStarted) - count(transmissionEnded)"
attr title "transmitting state"
attr type enum
vector 167 TsnLinearNetwork.client.eth[0].phyLayer.transmitter throughput:vector ETV
attr interpolationmode linear
attr recordingmode vector
attr source throughput(transmissionEnded)
attr title throughput
attr unit bps
vector 168 TsnLinearNetwork.client.eth[0].phyLayer.transmitter utilization:vector ETV
attr interpolationmode linear
attr recordingmode vector
attr source "100 * utilization(count(transmissionStarted) - count(transmissionEnded))"
attr title utilization
attr unit %
vector 169 TsnLinearNetwork.client.eth[0].phyLayer.transmitter transmissionTime:vector ETV
attr interpolationmode none
attr recordingmode vector
attr source packetDuration(transmissionEnded)
attr title "transmission time"
attr unit s
vector 170 TsnLinearNetwork.client.eth[0].phyLayer.transmitter flowTransmissionTime:vector ETV
attr interpolationmode none
attr recordingmode vector
attr source packetDuration(demuxFlow(transmissionEnded))
attr title "flow transmission time"
attr unit s
vector 171 TsnLinearNetwork.client.eth[0].phyLayer.phyHeaderChecker incomingPacketLengths:vector ETV
attr interpolationmode none
attr recordingmode vector
attr source "packetLength(merge(packetPushedIn, packetPulledIn))"
attr title "incoming packet lengths"
attr unit b
vector 172 TsnLinearNetwork.client.eth[0].phyLayer.phyHeaderChecker incomingDataRate:vector ETV
attr interpolationmode linear
attr recordingmode vector
attr source "throughput(merge(packetPushedIn, packetPulledIn))"
attr title "incoming data rate"
attr unit bps
vector 173 TsnLinearNetwork.client.eth[0].phyLayer.phyHeaderChecker outgoingPacketLengths:vector ETV
attr interpolationmode none
attr recordingmode vector
attr source "packetLength(merge(packetPushedOut, packetPulledOut))"
attr title "outgoing packet lengths"
attr unit b
vector 174 TsnLinearNetwork.client.eth[0].phyLayer.phyHeaderChecker outgoingDataRate:vector ETV
attr interpolationmode linear
attr recordingmode vector
attr source "throughput(merge(packetPushedOut, packetPulledOut))"
attr title "outgoing data rate"
attr unit bps
vector 175 TsnLinearNetwork.client.eth[0].phyLayer.phyHeaderChecker droppedPacketLengths:vector ETV
attr interpolationmode none
attr recordingmode vector
attr source packetLength(packetDropped)
attr title "dropped packet lengths"
attr unit b
vector 176 TsnLinearNetwork.client.eth[0].phyLayer.phyHeaderChecker droppedDataRate:vector ETV
attr interpolationmode linear
attr recordingmode vector
attr source throughput(packetDropped)
attr title "dropped data rate"
attr unit bps
vector 177 TsnLinearNetwork.client.eth[0].phyLayer.phyHeaderChecker flowIncomingPacketLengths:vector ETV
attr interpolationmode none
attr recordingmode vector
attr source "packetLength(demuxFlow(merge(packetPushedIn, packetPulledIn)))"
attr title "flow specific incoming packet lengths"
attr unit b
vector 178 TsnLinearNetwork.client.eth[0].phyLayer.phyHeaderChecker flowIncomingDataRate:vector ETV
attr interpolationmode linear
attr recordingmode vector
attr source "throughput(demuxFlow(merge(packetPushedIn, packetPulledIn)))"
attr title "flow specific incoming data rate"
attr unit bps
vector 179 TsnLinearNetwork.client.eth[0].phyLayer.phyHeaderChecker flowOutgoingPacketLengths:vector ETV
attr interpolationmode none
attr recordingmode vector
attr source "packetLength(demuxFlow(merge(packetPushedOut, packetPulledOut)))"
attr title "flow specific outgoing packet lengths"
attr unit b
vector 180 TsnLinearNetwork.client.eth[0].phyLayer.phyHeaderChecker flowOutgoingDataRate:vector ETV
attr interpolationmode linear
attr recordingmode vector
attr source "throughput(demuxFlow(merge(packetPushedOut, packetPulledOut)))"
attr title "flow specific outgoing data rate"
attr unit bps
vector 181 TsnLinearNetwork.client.eth[0].phyLayer.phyHeaderChecker flowDroppedPacketLengths:vector ETV
attr interpolationmode none
attr recordingmode vector
attr source packetLength(demuxFlow(packetDropped))
attr title "flow specific dropped packet lengths"
attr unit b
vector 182 TsnLinearNetwork.client.eth[0].phyLayer.phyHeaderChecker flowDroppedDataRate:vector ETV
attr interpolationmode linear
attr recordingmode vector
attr source throughput(demuxFlow(packetDropped))
attr title "flow specific dropped data rate"
attr unit bps
vector 183 TsnLinearNetwork.client.eth[0].phyLayer.inboundEmitter incomingPacketLengths:vector ETV
attr interpolationmode none
attr recordingmode vector
attr source "packetLength(merge(packetPushedIn, packetPulledIn))"
attr title "incoming packet lengths"
attr unit b
vector 184 TsnLinearNetwork.client.eth[0].phyLayer.inboundEmitter incomingDataRate:vector ETV
attr interpolationmode linear
attr recordingmode vector
attr source "throughput(merge(packetPushedIn, packetPulledIn))"
attr title "incoming data rate"
attr unit bps
vector 185 TsnLinearNetwork.client.eth[0].phyLayer.inboundEmitter outgoingPacketLengths:vector ETV
attr interpolationmode none
attr recordingmode vector
attr source "packetLength(merge(packetPushedOut, packetPulledOut))"
attr title "outgoing packet lengths"
attr unit b
vector 186 TsnLinearNetwork.client.eth[0].phyLayer.inboundEmitter outgoingDataRate:vector ETV
attr interpolationmode linear
attr recordingmode vector
attr source "throughput(merge(packetPushedOut, packetPulledOut))"
attr title "outgoing data rate"
attr unit bps
vector 187 TsnLinearNetwork.client.eth[0].phyLayer.inboundEmitter flowIncomingPacketLengths:vector ETV
attr interpolationmode none
attr recordingmode vector
attr source "packetLength(demuxFlow(merge(packetPushedIn, packetPulledIn)))"
attr title "flow specific incoming packet lengths"
attr unit b
vector 188 TsnLinearNetwork.client.eth[0].phyLayer.inboundEmitter flowIncomingDataRate:vector ETV
attr interpolationmode linear
attr recordingmode vector
attr source "throughput(demuxFlow(merge(packetPushedIn, packetPulledIn)))"
attr title "flow specific incoming data rate"
attr unit bps
vector 189 TsnLinearNetwork.client.eth[0].phyLayer.inboundEmitter flowOutgoingPacketLengths:vector ETV
attr interpolationmode none
attr recordingmode vector
attr source "packetLength(demuxFlow(merge(packetPushedOut, packetPulledOut)))"
attr title "flow specific outgoing packet lengths"
attr unit b
vector 190 TsnLinearNetwork.client.eth[0].phyLayer.inboundEmitter flowOutgoingDataRate:vector ETV
attr interpolationmode linear
attr recordingmode vector
attr source "throughput(demuxFlow(merge(packetPushedOut, packetPulledOut)))"
attr title "flow specific outgoing data rate"
attr unit bps
vector 191 TsnLinearNetwork.client.eth[0].phyLayer.receiver throughput:vector ETV
attr interpolationmode linear
attr recordingmode vector
attr source throughput(receptionEnded)
attr title throughput
attr unit bps
vector 192 TsnLinearNetwork.client.eth[0].phyLayer.receiver receptionTime:vector ETV
attr interpolationmode none
attr recordingmode vector
attr source packetDuration(receptionEnded)
attr title "reception time"
attr unit s
vector 193 TsnLinearNetwork.client.eth[0].phyLayer.receiver flowReceptionTime:vector ETV
attr interpolationmode none
attr recordingmode vector
attr source packetDuration(demuxFlow(receptionEnded))
attr title "flow reception time"
attr unit s
vector 194 TsnLinearNetwork.client.eth[0] packetDropInterfaceDown:vector(packetBytes) ETV
attr interpolationmode none
attr recordingmode vector(packetBytes)
attr source packetDropReasonIsInterfaceDown(packetDropped)
attr title "packet drops: interface down, packetBytes"
vector 195 TsnLinearNetwork.client.eth[0] packetDropNoCarrier:vector(packetBytes) ETV
attr interpolationmode none
attr recordingmode vector(packetBytes)
attr source packetDropReasonIsNoCarrier(packetDropped)
attr title "packet drops: no carrier, packetBytes"
vector 196 TsnLinearNetwork.client.ipv4.ip packetDropAddressResolutionFailed:vector(packetBytes) ETV
attr interpolationmode none
attr recordingmode vector(packetBytes)
attr source packetDropReasonIsAddressResolutionFailed(packetDropped)
attr title "packet drop: address resolution failed, packetBytes"
vector 197 TsnLinearNetwork.client.ipv4.ip packetDropHopLimitReached:vector(packetBytes) ETV
attr interpolationmode none
attr recordingmode vector(packetBytes)
attr source packetDropReasonIsHopLimitReached(packetDropped)
attr title "packet drop: hop limit reached, packetBytes"
vector 198 TsnLinearNetwork.client.ipv4.ip packetDropForwardingDisabled:vector(packetBytes) ETV
attr interpolationmode none
attr recordingmode vector(packetBytes)
attr source packetDropReasonIsForwardingDisabled(packetDropped)
attr title "packet drop: forwarding disabled, packetBytes"
vector 199 TsnLinearNetwork.client.ipv4.ip packetDropLifetimeExpired:vector(packetBytes) ETV
attr interpolationmode none
attr recordingmode vector(packetBytes)
attr source packetDropReasonIsLifetimeExpired(packetDropped)
attr title "packet drop: lifetime expired, packetBytes"
vector 200 TsnLinearNetwork.client.ipv4.ip packetDropNoInterfaceFound:vector(packetBytes) ETV
attr interpolationmode none
attr recordingmode vector(packetBytes)
attr source packetDropReasonIsNoInterfaceFound(packetDropped)
attr title "packet drop: no interface found, packetBytes"
vector 201 TsnLinearNetwork.client.ipv4.ip packetDropNoRouteFound:vector(packetBytes) ETV
attr interpolationmode none
attr recordingmode vector(packetBytes)
attr source packetDropReasonIsNoRouteFound(packetDropped)
attr title "packet drop: no route found, packetBytes"
vector 202 TsnLinearNetwork.client.ipv4.ip packetDropUndefined:vector(packetBytes) ETV
attr interpolationmode none
attr recordingmode vector(packetBytes)
attr source packetDropReasonIsUndefined(packetDropped)
attr title "packet drop: undefined, packetBytes"
vector 203 TsnLinearNetwork.client.udp packetSent:vector(packetBytes) ETV
attr interpolationmode none
attr recordingmode vector(packetBytes)
attr source packetSent
attr title "packets sent, packetBytes"
vector 204 TsnLinearNetwork.client.udp packetReceived:vector(packetBytes) ETV
attr interpolationmode none
attr recordingmode vector(packetBytes)
attr source packetReceived
attr title "packets received, packetBytes"
vector 205 TsnLinearNetwork.client.udp passedUpPk:vector(count) ETV
attr interpolationmode none
attr recordingmode vector(count)
attr source packetSentToUpper
attr title "packets passed up, count"
vector 206 TsnLinearNetwork.client.udp droppedPkWrongPort:vector(count) ETV
attr interpolationmode none
attr recordingmode vector(count)
attr source packetDropReasonIsNoPortFound(packetDropped)
attr title "packets dropped (wrong port), count"
vector 207 TsnLinearNetwork.client.udp droppedPkBadChecksum:vector(count) ETV
attr interpolationmode none
attr recordingmode vector(count)
attr source packetDropReasonIsIncorrectlyReceived(packetDropped)
attr title "packets dropped (checksum error), count"
vector 208 TsnLinearNetwork.client.app[0].source packetLengths:vector ETV
attr interpolationmode none
attr moduledisplaypath "TsnLinearNetwork.client.speed/torque command.source"
attr recordingmode vector
attr source packetLength(packetPushed)
attr title "packet lengths"
attr unit b
vector 209 TsnLinearNetwork.client.app[0].source dataRate:vector ETV
attr interpolationmode linear
attr moduledisplaypath "TsnLinearNetwork.client.speed/torque command.source"
attr recordingmode vector
attr source throughput(packetPushed)
attr title "data rate"
attr unit bps
vector 210 TsnLinearNetwork.client.app[0].io packetSent:vector(packetBytes) ETV
attr interpolationmode none
attr moduledisplaypath "TsnLinearNetwork.client.speed/torque command.io"
attr recordingmode vector(packetBytes)
attr source packetSent
attr title "packets sent, packetBytes"
vector 211 TsnLinearNetwork.client.app[0].io packetReceived:vector(packetBytes) ETV
attr interpolationmode none
attr moduledisplaypath "TsnLinearNetwork.client.speed/torque command.io"
attr recordingmode vector(packetBytes)
attr source packetReceived
attr title "packets received, packetBytes"
vector 212 TsnLinearNetwork.client.app[1].source packetLengths:vector ETV
attr interpolationmode none
attr moduledisplaypath "TsnLinearNetwork.client.brake command.source"
attr recordingmode vector
attr source packetLength(packetPushed)
attr title "packet lengths"
attr unit b
vector 213 TsnLinearNetwork.client.app[1].source dataRate:vector ETV
attr interpolationmode linear
attr moduledisplaypath "TsnLinearNetwork.client.brake command.source"
attr recordingmode vector
attr source throughput(packetPushed)
attr title "data rate"
attr unit bps
vector 214 TsnLinearNetwork.client.app[1].io packetSent:vector(packetBytes) ETV
attr interpolationmode none
attr moduledisplaypath "TsnLinearNetwork.client.brake command.io"
attr recordingmode vector(packetBytes)
attr source packetSent
attr title "packets sent, packetBytes"
vector 215 TsnLinearNetwork.client.app[1].io packetReceived:vector(packetBytes) ETV
attr interpolationmode none
attr moduledisplaypath "TsnLinearNetwork.client.brake command.io"
attr recordingmode vector(packetBytes)
attr source packetReceived
attr title "packets received, packetBytes"
vector 216 TsnLinearNetwork.switch.bridging.directionReverser.reverser incomingPacketLengths:vector ETV
attr interpolationmode none
attr recordingmode vector
attr source "packetLength(merge(packetPushedIn, packetPulledIn))"
attr title "incoming packet lengths"
attr unit b
vector 217 TsnLinearNetwork.switch.bridging.directionReverser.reverser incomingDataRate:vector ETV
attr interpolationmode linear
attr recordingmode vector
attr source "throughput(merge(packetPushedIn, packetPulledIn))"
attr title "incoming data rate"
attr unit bps
vector 218 TsnLinearNetwork.switch.bridging.directionReverser.reverser outgoingPacketLengths:vector ETV
attr interpolationmode none
attr recordingmode vector
attr source "packetLength(merge(packetPushedOut, packetPulledOut))"
attr title "outgoing packet lengths"
attr unit b
vector 219 TsnLinearNetwork.switch.bridging.directionReverser.reverser outgoingDataRate:vector ETV
attr interpolationmode linear
attr recordingmode vector
attr source "throughput(merge(packetPushedOut, packetPulledOut))"
attr title "outgoing data rate"
attr unit bps
vector 220 TsnLinearNetwork.switch.bridging.directionReverser.reverser flowIncomingPacketLengths:vector ETV
attr interpolationmode none
attr recordingmode vector
attr source "packetLength(demuxFlow(merge(packetPushedIn, packetPulledIn)))"
attr title "flow specific incoming packet lengths"
attr unit b
vector 221 TsnLinearNetwork.switch.bridging.directionReverser.reverser flowIncomingDataRate:vector ETV
attr interpolationmode linear
attr recordingmode vector
attr source "throughput(demuxFlow(merge(packetPushedIn, packetPulledIn)))"
attr title "flow specific incoming data rate"
attr unit bps
vector 222 TsnLinearNetwork.switch.bridging.directionReverser.reverser flowOutgoingPacketLengths:vector ETV
attr interpolationmode none
attr recordingmode vector
attr source "packetLength(demuxFlow(merge(packetPushedOut, packetPulledOut)))"
attr title "flow specific outgoing packet lengths"
attr unit b
vector 223 TsnLinearNetwork.switch.bridging.directionReverser.reverser flowOutgoingDataRate:vector ETV
attr interpolationmode linear
attr recordingmode vector
attr source "throughput(demuxFlow(merge(packetPushedOut, packetPulledOut)))"
attr title "flow specific outgoing data rate"
attr unit bps
vector 224 TsnLinearNetwork.switch.bridging.directionReverser.join packetLengths:vector ETV
attr interpolationmode none
attr recordingmode vector
attr source "packetLength(merge(packetPushed, packetPulled))"
attr title "packet lengths"
attr unit b
vector 225 TsnLinearNetwork.switch.bridging.directionReverser.join dataRate:vector ETV
attr interpolationmode linear
attr recordingmode vector
attr source "throughput(merge(packetPushed, packetPulled))"
attr title "data rate"
attr unit bps
vector 226 TsnLinearNetwork.switch.bridging.interfaceRelay.learner incomingPacketLengths:vector ETV
attr interpolationmode none
attr recordingmode vector
attr source "packetLength(merge(packetPushedIn, packetPulledIn))"
attr title "incoming packet lengths"
attr unit b
vector 227 TsnLinearNetwork.switch.bridging.interfaceRelay.learner incomingDataRate:vector ETV
attr interpolationmode linear
attr recordingmode vector
attr source "throughput(merge(packetPushedIn, packetPulledIn))"
attr title "incoming data rate"
attr unit bps
vector 228 TsnLinearNetwork.switch.bridging.interfaceRelay.learner outgoingPacketLengths:vector ETV
attr interpolationmode none
attr recordingmode vector
attr source "packetLength(merge(packetPushedOut, packetPulledOut))"
attr title "outgoing packet lengths"
attr unit b
vector 229 TsnLinearNetwork.switch.bridging.interfaceRelay.learner outgoingDataRate:vector ETV
attr interpolationmode linear
attr recordingmode vector
attr source "throughput(merge(packetPushedOut, packetPulledOut))"
attr title "outgoing data rate"
attr unit bps
vector 230 TsnLinearNetwork.switch.bridging.interfaceRelay.learner flowIncomingPacketLengths:vector ETV
attr interpolationmode none
attr recordingmode vector
attr source "packetLength(demuxFlow(merge(packetPushedIn, packetPulledIn)))"
attr title "flow specific incoming packet lengths"
attr unit b
vector 231 TsnLinearNetwork.switch.bridging.interfaceRelay.learner flowIncomingDataRate:vector ETV
attr interpolationmode linear
attr recordingmode vector
attr source "throughput(demuxFlow(merge(packetPushedIn, packetPulledIn)))"
attr title "flow specific incoming data rate"
attr unit bps
vector 232 TsnLinearNetwork.switch.bridging.interfaceRelay.learner flowOutgoingPacketLengths:vector ETV
attr interpolationmode none
attr recordingmode vector
attr source "packetLength(demuxFlow(merge(packetPushedOut, packetPulledOut)))"
attr title "flow specific outgoing packet lengths"
attr unit b
vector 233 TsnLinearNetwork.switch.bridging.interfaceRelay.learner flowOutgoingDataRate:vector ETV
attr interpolationmode linear
attr recordingmode vector
attr source "throughput(demuxFlow(merge(packetPushedOut, packetPulledOut)))"
attr title "flow specific outgoing data rate"
attr unit bps
vector 234 TsnLinearNetwork.switch.bridging.interfaceRelay.selector packetDropped:vector(packetBytes) ETV
attr interpolationmode none
attr recordingmode vector(packetBytes)
attr title "packets dropped, packetBytes"
vector 235 TsnLinearNetwork.switch.ethernet.macHeaderInserter incomingPacketLengths:vector ETV
attr interpolationmode none
attr recordingmode vector
attr source "packetLength(merge(packetPushedIn, packetPulledIn))"
attr title "incoming packet lengths"
attr unit b
vector 236 TsnLinearNetwork.switch.ethernet.macHeaderInserter incomingDataRate:vector ETV
attr interpolationmode linear
attr recordingmode vector
attr source "throughput(merge(packetPushedIn, packetPulledIn))"
attr title "incoming data rate"
attr unit bps
vector 237 TsnLinearNetwork.switch.ethernet.macHeaderInserter outgoingPacketLengths:vector ETV
attr interpolationmode none
attr recordingmode vector
attr source "packetLength(merge(packetPushedOut, packetPulledOut))"
attr title "outgoing packet lengths"
attr unit b
vector 238 TsnLinearNetwork.switch.ethernet.macHeaderInserter outgoingDataRate:vector ETV
attr interpolationmode linear
attr recordingmode vector
attr source "throughput(merge(packetPushedOut, packetPulledOut))"
attr title "outgoing data rate"
attr unit bps
vector 239 TsnLinearNetwork.switch.ethernet.macHeaderInserter flowIncomingPacketLengths:vector ETV
attr interpolationmode none
attr recordingmode vector
attr source "packetLength(demuxFlow(merge(packetPushedIn, packetPulledIn)))"
attr title "flow specific incoming packet lengths"
attr unit b
vector 240 TsnLinearNetwork.switch.ethernet.macHeaderInserter flowIncomingDataRate:vector ETV
attr interpolationmode linear
attr recordingmode vector
attr source "throughput(demuxFlow(merge(packetPushedIn, packetPulledIn)))"
attr title "flow specific incoming data rate"
attr unit bps
vector 241 TsnLinearNetwork.switch.ethernet.macHeaderInserter flowOutgoingPacketLengths:vector ETV
attr interpolationmode none
attr recordingmode vector
attr source "packetLength(demuxFlow(merge(packetPushedOut, packetPulledOut)))"
attr title "flow specific outgoing packet lengths"
attr unit b
vector 242 TsnLinearNetwork.switch.ethernet.macHeaderInserter flowOutgoingDataRate:vector ETV
attr interpolationmode linear
attr recordingmode vector
attr source "throughput(demuxFlow(merge(packetPushedOut, packetPulledOut)))"
attr title "flow specific outgoing data rate"
attr unit bps
vector 243 TsnLinearNetwork.switch.ethernet.paddingInserter incomingPacketLengths:vector ETV
attr interpolationmode none
attr recordingmode vector
attr source "packetLength(merge(packetPushedIn, packetPulledIn))"
attr title "incoming packet lengths"
attr unit b
vector 244 TsnLinearNetwork.switch.ethernet.paddingInserter incomingDataRate:vector ETV
attr interpolationmode linear
attr recordingmode vector
attr source "throughput(merge(packetPushedIn, packetPulledIn))"
attr title "incoming data rate"
attr unit bps
vector 245 TsnLinearNetwork.switch.ethernet.paddingInserter outgoingPacketLengths:vector ETV
attr interpolationmode none
attr recordingmode vector
attr source "packetLength(merge(packetPushedOut, packetPulledOut))"
attr title "outgoing packet lengths"
attr unit b
vector 246 TsnLinearNetwork.switch.ethernet.paddingInserter outgoingDataRate:vector ETV
attr interpolationmode linear
attr recordingmode vector
attr source "throughput(merge(packetPushedOut, packetPulledOut))"
attr title "outgoing data rate"
attr unit bps
vector 247 TsnLinearNetwork.switch.ethernet.paddingInserter flowIncomingPacketLengths:vector ETV
attr interpolationmode none
attr recordingmode vector
attr source "packetLength(demuxFlow(merge(packetPushedIn, packetPulledIn)))"
attr title "flow specific incoming packet lengths"
attr unit b
vector 248 TsnLinearNetwork.switch.ethernet.paddingInserter flowIncomingDataRate:vector ETV
attr interpolationmode linear
attr recordingmode vector
attr source "throughput(demuxFlow(merge(packetPushedIn, packetPulledIn)))"
attr title "flow specific incoming data rate"
attr unit bps
vector 249 TsnLinearNetwork.switch.ethernet.paddingInserter flowOutgoingPacketLengths:vector ETV
attr interpolationmode none
attr recordingmode vector
attr source "packetLength(demuxFlow(merge(packetPushedOut, packetPulledOut)))"
attr title "flow specific outgoing packet lengths"
attr unit b
vector 250 TsnLinearNetwork.switch.ethernet.paddingInserter flowOutgoingDataRate:vector ETV
attr interpolationmode linear
attr recordingmode vector
attr source "throughput(demuxFlow(merge(packetPushedOut, packetPulledOut)))"
attr title "flow specific outgoing data rate"
attr unit bps
vector 251 TsnLinearNetwork.switch.ethernet.fcsInserter incomingPacketLengths:vector ETV
attr interpolationmode none
attr recordingmode vector
attr source "packetLength(merge(packetPushedIn, packetPulledIn))"
attr title "incoming packet lengths"
attr unit b
vector 252 TsnLinearNetwork.switch.ethernet.fcsInserter incomingDataRate:vector ETV
attr interpolationmode linear
attr recordingmode vector
attr source "throughput(merge(packetPushedIn, packetPulledIn))"
attr title "incoming data rate"
attr unit bps
vector 253 TsnLinearNetwork.switch.ethernet.fcsInserter outgoingPacketLengths:vector ETV
attr interpolationmode none
attr recordingmode vector
attr source "packetLength(merge(packetPushedOut, packetPulledOut))"
attr title "outgoing packet lengths"
attr unit b
vector 254 TsnLinearNetwork.switch.ethernet.fcsInserter outgoingDataRate:vector ETV
attr interpolationmode linear
attr recordingmode vector
attr source "throughput(merge(packetPushedOut, packetPulledOut))"
attr title "outgoing data rate"
attr unit bps
vector 255 TsnLinearNetwork.switch.ethernet.fcsInserter flowIncomingPacketLengths:vector ETV
attr interpolationmode none
attr recordingmode vector
attr source "packetLength(demuxFlow(merge(packetPushedIn, packetPulledIn)))"
attr title "flow specific incoming packet lengths"
attr unit b
vector 256 TsnLinearNetwork.switch.ethernet.fcsInserter flowIncomingDataRate:vector ETV
attr interpolationmode linear
attr recordingmode vector
attr source "throughput(demuxFlow(merge(packetPushedIn, packetPulledIn)))"
attr title "flow specific incoming data rate"
attr unit bps
vector 257 TsnLinearNetwork.switch.ethernet.fcsInserter flowOutgoingPacketLengths:vector ETV
attr interpolationmode none
attr recordingmode vector
attr source "packetLength(demuxFlow(merge(packetPushedOut, packetPulledOut)))"
attr title "flow specific outgoing packet lengths"
attr unit b
vector 258 TsnLinearNetwork.switch.ethernet.fcsInserter flowOutgoingDataRate:vector ETV
attr interpolationmode linear
attr recordingmode vector
attr source "throughput(demuxFlow(merge(packetPushedOut, packetPulledOut)))"
attr title "flow specific outgoing data rate"
attr unit bps
vector 259 TsnLinearNetwork.switch.ethernet.macHeaderChecker incomingPacketLengths:vector ETV
attr interpolationmode none
attr recordingmode vector
attr source "packetLength(merge(packetPushedIn, packetPulledIn))"
attr title "incoming packet lengths"
attr unit b
vector 260 TsnLinearNetwork.switch.ethernet.macHeaderChecker incomingDataRate:vector ETV
attr interpolationmode linear
attr recordingmode vector
attr source "throughput(merge(packetPushedIn, packetPulledIn))"
attr title "incoming data rate"
attr unit bps
vector 261 TsnLinearNetwork.switch.ethernet.macHeaderChecker outgoingPacketLengths:vector ETV
attr interpolationmode none
attr recordingmode vector
attr source "packetLength(merge(packetPushedOut, packetPulledOut))"
attr title "outgoing packet lengths"
attr unit b
vector 262 TsnLinearNetwork.switch.ethernet.macHeaderChecker outgoingDataRate:vector ETV
attr interpolationmode linear
attr recordingmode vector
attr source "throughput(merge(packetPushedOut, packetPulledOut))"
attr title "outgoing data rate"
attr unit bps
vector 263 TsnLinearNetwork.switch.ethernet.macHeaderChecker droppedPacketLengths:vector ETV
attr interpolationmode none
attr recordingmode vector
attr source packetLength(packetDropped)
attr title "dropped packet lengths"
attr unit b
vector 264 TsnLinearNetwork.switch.ethernet.macHeaderChecker droppedDataRate:vector ETV
attr interpolationmode linear
attr recordingmode vector
attr source throughput(packetDropped)
attr title "dropped data rate"
attr unit bps
vector 265 TsnLinearNetwork.switch.ethernet.macHeaderChecker flowIncomingPacketLengths:vector ETV
attr interpolationmode none
attr recordingmode vector
attr source "packetLength(demuxFlow(merge(packetPushedIn, packetPulledIn)))"
attr title "flow specific incoming packet lengths"
attr unit b
vector 266 TsnLinearNetwork.switch.ethernet.macHeaderChecker flowIncomingDataRate:vector ETV
attr interpolationmode linear
attr recordingmode vector
attr source "throughput(demuxFlow(merge(packetPushedIn, packetPulledIn)))"
attr title "flow specific incoming data rate"
attr unit bps
vector 267 TsnLinearNetwork.switch.ethernet.macHeaderChecker flowOutgoingPacketLengths:vector ETV
attr interpolationmode none
attr recordingmode vector
attr source "packetLength(demuxFlow(merge(packetPushedOut, packetPulledOut)))"
attr title "flow specific outgoing packet lengths"
attr unit b
vector 268 TsnLinearNetwork.switch.ethernet.macHeaderChecker flowOutgoingDataRate:vector ETV
attr interpolationmode linear
attr recordingmode vector
attr source "throughput(demuxFlow(merge(packetPushedOut, packetPulledOut)))"
attr title "flow specific outgoing data rate"
attr unit bps
vector 269 TsnLinearNetwork.switch.ethernet.macHeaderChecker flowDroppedPacketLengths:vector ETV
attr interpolationmode none
attr recordingmode vector
attr source packetLength(demuxFlow(packetDropped))
attr title "flow specific dropped packet lengths"
attr unit b
vector 270 TsnLinearNetwork.switch.ethernet.macHeaderChecker flowDroppedDataRate:vector ETV
attr interpolationmode linear
attr recordingmode vector
attr source throughput(demuxFlow(packetDropped))
attr title "flow specific dropped data rate"
attr unit bps
vector 271 TsnLinearNetwork.switch.ethernet.fcsChecker incomingPacketLengths:vector ETV
attr interpolationmode none
attr recordingmode vector
attr source "packetLength(merge(packetPushedIn, packetPulledIn))"
attr title "incoming packet lengths"
attr unit b
vector 272 TsnLinearNetwork.switch.ethernet.fcsChecker incomingDataRate:vector ETV
attr interpolationmode linear
attr recordingmode vector
attr source "throughput(merge(packetPushedIn, packetPulledIn))"
attr title "incoming data rate"
attr unit bps
vector 273 TsnLinearNetwork.switch.ethernet.fcsChecker outgoingPacketLengths:vector ETV
attr interpolationmode none
attr recordingmode vector
attr source "packetLength(merge(packetPushedOut, packetPulledOut))"
attr title "outgoing packet lengths"
attr unit b
vector 274 TsnLinearNetwork.switch.ethernet.fcsChecker outgoingDataRate:vector ETV
attr interpolationmode linear
attr recordingmode vector
attr source "throughput(merge(packetPushedOut, packetPulledOut))"
attr title "outgoing data rate"
attr unit bps
vector 275 TsnLinearNetwork.switch.ethernet.fcsChecker droppedPacketLengths:vector ETV
attr interpolationmode none
attr recordingmode vector
attr source packetLength(packetDropped)
attr title "dropped packet lengths"
attr unit b
vector 276 TsnLinearNetwork.switch.ethernet.fcsChecker droppedDataRate:vector ETV
attr interpolationmode linear
attr recordingmode vector
attr source throughput(packetDropped)
attr title "dropped data rate"
attr unit bps
vector 277 TsnLinearNetwork.switch.ethernet.fcsChecker flowIncomingPacketLengths:vector ETV
attr interpolationmode none
attr recordingmode vector
attr source "packetLength(demuxFlow(merge(packetPushedIn, packetPulledIn)))"
attr title "flow specific incoming packet lengths"
attr unit b
vector 278 TsnLinearNetwork.switch.ethernet.fcsChecker flowIncomingDataRate:vector ETV
attr interpolationmode linear
attr recordingmode vector
attr source "throughput(demuxFlow(merge(packetPushedIn, packetPulledIn)))"
attr title "flow specific incoming data rate"
attr unit bps
vector 279 TsnLinearNetwork.switch.ethernet.fcsChecker flowOutgoingPacketLengths:vector ETV
attr interpolationmode none
attr recordingmode vector
attr source "packetLength(demuxFlow(merge(packetPushedOut, packetPulledOut)))"
attr title "flow specific outgoing packet lengths"
attr unit b
vector 280 TsnLinearNetwork.switch.ethernet.fcsChecker flowOutgoingDataRate:vector ETV
attr interpolationmode linear
attr recordingmode vector
attr source "throughput(demuxFlow(merge(packetPushedOut, packetPulledOut)))"
attr title "flow specific outgoing data rate"
attr unit bps
vector 281 TsnLinearNetwork.switch.ethernet.fcsChecker flowDroppedPacketLengths:vector ETV
attr interpolationmode none
attr recordingmode vector
attr source packetLength(demuxFlow(packetDropped))
attr title "flow specific dropped packet lengths"
attr unit b
vector 282 TsnLinearNetwork.switch.ethernet.fcsChecker flowDroppedDataRate:vector ETV
attr interpolationmode linear
attr recordingmode vector
attr source throughput(demuxFlow(packetDropped))
attr title "flow specific dropped data rate"
attr unit bps
vector 283 TsnLinearNetwork.switch.ieee8021q.qTagHeaderInserter incomingPacketLengths:vector ETV
attr interpolationmode none
[...]
357	299592 24 34 34 0.000035840137 0.000035840137 1 0 0 0 0
362	299616 24 34 34 0.000035840137 0.000035840137 1 0 0 0 0
364	299640 24 34 34 0.000035840137 0.000035840137 1 0 0 0 0
367	299664 24 34 34 0.000035840137 0.000035840137 1 0 0 0 0
368	299688 24 34 34 0.000035840137 0.000035840137 1 0 0 0 0
373	299712 24 34 34 0.000035840137 0.000035840137 1 0 0 0 0
375	299736 24 34 34 0.000035840137 0.000035840137 1 0 0 0 0
378	299760 24 34 34 0.000035840137 0.000035840137 1 0 0 0 0
379	299784 24 34 34 0.000035840137 0.000035840137 1 0 0 0 0
384	299808 24 34 34 0.000035840137 0.000035840137 1 0 0 0 0
386	299832 24 34 34 0.000035840137 0.000035840137 1 0 0 0 0
389	299856 24 34 34 0.000035840137 0.000035840137 1 0 0 0 0
390	299880 24 34 34 0.000035840137 0.000035840137 1 0 0 0 0
395	299904 24 34 34 0.000035840137 0.000035840137 1 0 0 0 0
397	299928 24 34 34 0.000035840137 0.000035840137 1 0 0 0 0
400	299952 24 34 34 0.000035840137 0.000035840137 1 0 0 0 0
401	299976 24 34 34 0.000035840137 0.000035840137 1 0 0 0 0
406	300000 24 34 34 0.000035840137 0.000035840137 1 0 0 0 0
408	300024 24 34 34 0.000035840137 0.000035840137 1 0 0 0 0
411	300048 24 34 34 0.000035840137 0.000035840137 1 0 0 0 0
412	300072 24 34 34 0.000035840137 0.000035840137 1 0 0 0 0
414	300096 24 34 34 0.000035840137 0.000035840137 1 0 0 0 0
416	300120 24 34 34 0.000035840137 0.000035840137 1 0 0 0 0
418	300144 24 34 34 0.000035840137 0.000035840137 1 0 0 0 0
420	300168 24 34 34 0.000035840137 0.000035840137 1 0 0 0 0
422	300192 24 34 34 0.000035840137 0.000035840137 1 0 0 0 0
424	300216 24 34 34 0.000035840137 0.000035840137 1 0 0 0 0
426	300240 24 34 34 0.000035840137 0.000035840137 1 0 0 0 0
428	300264 24 34 34 0.000035840137 0.000035840137 1 0 0 0 0
430	300288 24 34 34 0.000035840137 0.000035840137 1 0 0 0 0
432	300312 24 34 34 0.000035840137 0.000035840137 1 0 0 0 0
434	300336 24 34 34 0.000035840137 0.000035840137 1 0 0 0 0
436	300360 24 34 34 0.000035840137 0.000035840137 1 0 0 0 0
438	300384 24 34 34 0.000035840137 0.000035840137 1 0 0 0 0
440	300408 24 34 34 0.000035840137 0.000035840137 1 0 0 0 0
442	300432 24 34 34 0.000035840137 0.000035840137 1 0 0 0 0
444	300456 24 34 34 0.000035840137 0.000035840137 1 0 0 0 0
446	300480 24 34 34 0.000035840137 0.000035840137 1 0 0 0 0
448	300504 24 34 34 0.000035840137 0.000035840137 1 0 0 0 0
450	300528 24 34 34 0.000035840137 0.000035840137 1 0 0 0 0
452	300552 24 34 34 0.000035840137 0.000035840137 1 0 0 0 0
454	300576 24 34 34 0.000035840137 0.000035840137 1 0 0 0 0
456	300600 24 34 34 0.000035840137 0.000035840137 1 0 0 0 0
458	300624 24 34 34 0.000035840137 0.000035840137 1 0 0 0 0
460	300648 24 34 34 0.000035840137 0.000035840137 1 0 0 0 0
462	300672 24 34 34 0.000035840137 0.000035840137 1 0 0 0 0
464	300696 24 34 34 0.000035840137 0.000035840137 1 0 0 0 0
466	300720 24 34 34 0.000035840137 0.000035840137 1 0 0 0 0
468	300744 24 34 34 0.000035840137 0.000035840137 1 0 0 0 0
470	300768 24 34 34 0.000035840137 0.000035840137 1 0 0 0 0
472	300792 24 34 34 0.000035840137 0.000035840137 1 0 0 0 0
474	300816 24 34 34 0.000035840137 0.000035840137 1 0 0 0 0
476	300840 24 34 34 0.000035840137 0.000035840137 1 0 0 0 0
478	300864 24 34 34 0.000035840137 0.000035840137 1 0 0 0 0
480	300888 24 34 34 0.000035840137 0.000035840137 1 0 0 0 0
482	300912 24 34 34 0.000035840137 0.000035840137 1 0 0 0 0
484	300936 24 34 34 0.000035840137 0.000035840137 1 0 0 0 0
486	300960 24 34 34 0.000035840137 0.000035840137 1 0 0 0 0
488	300984 24 34 34 0.000035840137 0.000035840137 1 0 0 0 0
490	301008 24 34 34 0.000035840137 0.000035840137 1 0 0 0 0
492	301032 24 34 34 0.000035840137 0.000035840137 1 0 0 0 0
494	301056 24 34 34 0.000035840137 0.000035840137 1 0 0 0 0
499	301080 24 34 34 0.000035840137 0.000035840137 1 0 0 0 0
501	301104 24 34 34 0.000035840137 0.000035840137 1 0 0 0 0
504	301128 24 34 34 0.000035840137 0.000035840137 1 0 0 0 0
505	301152 24 34 34 0.000035840137 0.000035840137 1 0 0 0 0
507	301176 24 34 34 0.000035840137 0.000035840137 1 0 0 0 0
509	301200 24 34 34 0.000035840137 0.000035840137 1 0 0 0 0
511	301224 24 34 34 0.000035840137 0.000035840137 1 0 0 0 0
513	301248 24 34 34 0.000035840137 0.000035840137 1 0 0 0 0
515	301272 24 34 34 0.000035840137 0.000035840137 1 0 0 0 0
517	301296 24 34 34 0.000035840137 0.000035840137 1 0 0 0 0
519	301320 38 34 34 0.000035840137 0.000035840137 1 25446331.301691 25446331.301691 25446331.301691 6.4751577671543e+14
521	301358 38 34 34 0.000035840137 0.000035840137 1 25446331.301691 25446331.301691 25446331.301691 6.4751577671543e+14
523	301396 24 34 34 0.000035840137 0.000035840137 1 0 0 0 0
525	301420 24 34 34 0.000035840137 0.000035840137 1 0 0 0 0
527	301444 24 34 34 0.000035840137 0.000035840137 1 0 0 0 0
529	301468 24 34 34 0.000035840137 0.000035840137 1 0 0 0 0
531	301492 38 34 34 0.000035840137 0.000035840137 1 25446331.301691 25446331.301691 25446331.301691 6.4751577671543e+14
533	301530 38 34 34 0.000035840137 0.000035840137 1 25446331.301691 25446331.301691 25446331.301691 6.4751577671543e+14
535	301568 24 34 34 0.000035840137 0.000035840137 1 0 0 0 0
537	301592 24 34 34 0.000035840137 0.000035840137 1 0 0 0 0
539	301616 24 34 34 0.000035840137 0.000035840137 1 0 0 0 0
541	301640 24 34 34 0.000035840137 0.000035840137 1 0 0 0 0
543	301664 24 34 34 0.000035840137 0.000035840137 1 0 0 0 0
545	301688 24 34 34 0.000035840137 0.000035840137 1 0 0 0 0
548	301712 24 34 34 0.000035840137 0.000035840137 1 0 0 0 0
550	301736 24 34 34 0.000035840137 0.000035840137 1 0 0 0 0
552	301760 24 34 34 0.000035840137 0.000035840137 1 0 0 0 0
554	301784 24 34 34 0.000035840137 0.000035840137 1 0 0 0 0
556	301808 24 34 34 0.000035840137 0.000035840137 1 0 0 0 0
557	301832 24 34 34 0.000035840137 0.000035840137 1 0 0 0 0
561	301856 38 34 34 0.000035840137 0.000035840137 1 27232038.761459 27232038.761459 27232038.761459 7.415839351056e+14
563	301894 38 34 34 0.000035840137 0.000035840137 1 25446331.301691 25446331.301691 25446331.301691 6.4751577671543e+14
565	301932 24 34 34 0.000035840137 0.000035840137 1 0 0 0 0
567	301956 24 34 34 0.000035840137 0.000035840137 1 0 0 0 0
569	301980 24 34 34 0.000035840137 0.000035840137 1 0 0 0 0
571	302004 24 34 34 0.000035840137 0.000035840137 1 0 0 0 0
573	302028 38 34 34 0.000035840137 0.000035840137 1 27232038.761459 27232038.761459 27232038.761459 7.415839351056e+14
575	302066 38 34 34 0.000035840137 0.000035840137 1 27232038.761459 27232038.761459 27232038.761459 7.415839351056e+14
577	302104 24 34 34 0.000035840137 0.000035840137 1 0 0 0 0
579	302128 24 34 34 0.000035840137 0.000035840137 1 0 0 0 0
580	302152 38 34 34 0.000035840137 0.000035840137 1 27232038.761459 27232038.761459 27232038.761459 7.415839351056e+14
586	302190 38 34 34 0.000035840137 0.000035840137 1 24553477.571807 24553477.571807 24553477.571807 6.0287326086924e+14
591	302228 24 34 34 0.000035840137 0.000035840137 1 0 0 0 0
593	302252 24 34 34 0.000035840137 0.000035840137 1 0 0 0 0
596	302276 24 34 34 0.000035840137 0.000035840137 1 0 0 0 0
597	302300 24 34 34 0.000035840137 0.000035840137 1 0 0 0 0
602	302324 24 34 34 0.000035840137 0.000035840137 1 0 0 0 0
604	302348 24 34 34 0.000035840137 0.000035840137 1 0 0 0 0
607	302372 24 34 34 0.000035840137 0.000035840137 1 0 0 0 0
608	302396 24 34 34 0.000035840137 0.000035840137 1 0 0 0 0
613	302420 24 34 34 0.000035840137 0.000035840137 1 0 0 0 0
615	302444 24 34 34 0.000035840137 0.000035840137 1 0 0 0 0
618	302468 24 34 34 0.000035840137 0.000035840137 1 0 0 0 0
619	302492 24 34 34 0.000035840137 0.000035840137 1 0 0 0 0
624	302516 24 34 34 0.000035840137 0.000035840137 1 0 0 0 0
626	302540 24 34 34 0.000035840137 0.000035840137 1 0 0 0 0
629	302564 24 34 34 0.000035840137 0.000035840137 1 0 0 0 0
630	302588 24 34 34 0.000035840137 0.000035840137 1 0 0 0 0
635	302612 24 34 34 0.000035840137 0.000035840137 1 0 0 0 0
637	302636 24 34 34 0.000035840137 0.000035840137 1 0 0 0 0
640	302660 24 34 34 0.000035840137 0.000035840137 1 0 0 0 0
641	302684 24 34 34 0.000035840137 0.000035840137 1 0 0 0 0
646	302708 24 34 34 0.000035840137 0.000035840137 1 0 0 0 0
648	302732 24 34 34 0.000035840137 0.000035840137 1 0 0 0 0
651	302756 24 34 34 0.000035840137 0.000035840137 1 0 0 0 0
652	302780 24 34 34 0.000035840137 0.000035840137 1 0 0 0 0
657	302804 24 34 34 0.000035840137 0.000035840137 1 0 0 0 0
659	302828 24 34 34 0.000035840137 0.000035840137 1 0 0 0 0
662	302852 24 34 34 0.000035840137 0.000035840137 1 0 0 0 0
663	302876 24 34 34 0.000035840137 0.000035840137 1 0 0 0 0
668	302900 38 34 34 0.000035840137 0.000035840137 1 24553477.571807 24553477.571807 24553477.571807 6.0287326086924e+14
670	302938 38 34 34 0.000035840137 0.000035840137 1 24553477.571807 24553477.571807 24553477.571807 6.0287326086924e+14
673	302976 24 34 34 0.000035840137 0.000035840137 1 0 0 0 0
674	303000 24 34 34 0.000035840137 0.000035840137 1 0 0 0 0
676	303024 24 34 34 0.000035840137 0.000035840137 1 0 0 0 0
678	303048 24 34 34 0.000035840137 0.000035840137 1 0 0 0 0
680	303072 24 34 34 0.000035840137 0.000035840137 1 0 0 0 0
682	303096 24 34 34 0.000035840137 0.000035840137 1 0 0 0 0
684	303120 24 34 34 0.000035840137 0.000035840137 1 0 0 0 0
686	303144 24 34 34 0.000035840137 0.000035840137 1 0 0 0 0
688	303168 24 34 34 0.000035840137 0.000035840137 1 0 0 0 0
690	303192 24 34 34 0.000035840137 0.000035840137 1 0 0 0 0
692	303216 24 34 34 0.000035840137 0.000035840137 1 0 0 0 0
694	303240 24 34 34 0.000035840137 0.000035840137 1 0 0 0 0
696	303264 24 34 34 0.000035840137 0.000035840137 1 0 0 0 0
698	303288 24 34 34 0.000035840137 0.000035840137 1 0 0 0 0
700	303312 24 34 34 0.000035840137 0.000035840137 1 0 0 0 0
702	303336 24 34 34 0.000035840137 0.000035840137 1 0 0 0 0
704	303360 24 34 34 0.000035840137 0.000035840137 1 0 0 0 0
706	303384 24 34 34 0.000035840137 0.000035840137 1 0 0 0 0
708	303408 24 34 34 0.000035840137 0.000035840137 1 0 0 0 0
710	303432 24 34 34 0.000035840137 0.000035840137 1 0 0 0 0
712	303456 24 34 34 0.000035840137 0.000035840137 1 0 0 0 0
714	303480 24 34 34 0.000035840137 0.000035840137 1 0 0 0 0
716	303504 24 34 34 0.000035840137 0.000035840137 1 0 0 0 0
718	303528 24 34 34 0.000035840137 0.000035840137 1 0 0 0 0
720	303552 24 34 34 0.000035840137 0.000035840137 1 0 0 0 0
722	303576 24 34 34 0.000035840137 0.000035840137 1 0 0 0 0
724	303600 24 34 34 0.000035840137 0.000035840137 1 0 0 0 0
726	303624 24 34 34 0.000035840137 0.000035840137 1 0 0 0 0
728	303648 24 34 34 0.000035840137 0.000035840137 1 0 0 0 0
730	303672 24 34 34 0.000035840137 0.000035840137 1 0 0 0 0
732	303696 24 34 34 0.000035840137 0.000035840137 1 0 0 0 0
734	303720 24 34 34 0.000035840137 0.000035840137 1 0 0 0 0
736	303744 24 34 34 0.000035840137 0.000035840137 1 0 0 0 0
738	303768 24 34 34 0.000035840137 0.000035840137 1 0 0 0 0
740	303792 24 34 34 0.000035840137 0.000035840137 1 0 0 0 0
742	303816 24 34 34 0.000035840137 0.000035840137 1 0 0 0 0
744	303840 24 34 34 0.000035840137 0.000035840137 1 0 0 0 0
746	303864 38 34 34 0.000035840137 0.000035840137 1 24553477.571807 24553477.571807 24553477.571807 6.0287326086924e+14
748	303902 38 34 34 0.000035840137 0.000035840137 1 24553477.571807 24553477.571807 24553477.571807 6.0287326086924e+14
750	303940 24 34 34 0.000035840137 0.000035840137 1 0 0 0 0
752	303964 24 34 34 0.000035840137 0.000035840137 1 0 0 0 0
754	303988 24 34 34 0.000035840137 0.000035840137 1 0 0 0 0
756	304012 38 34 34 0.000035840137 0.000035840137 1 24553477.571807 24553477.571807 24553477.571807 6.0287326086924e+14
761	304050 38 34 34 0.000035840137 0.000035840137 1 24553477.571807 24553477.571807 24553477.571807 6.0287326086924e+14
763	304088 38 34 34 0.000035840137 0.000035840137 1 24553477.571807 24553477.571807 24553477.571807 6.0287326086924e+14
766	304126 24 34 34 0.000035840137 0.000035840137 1 0 0 0 0
767	304150 24 34 34 0.000035840137 0.000035840137 1 0 0 0 0
769	304174 38 34 34 0.000035840137 0.000035840137 1 24553477.571807 24553477.571807 24553477.571807 6.0287326086924e+14
771	304212 38 34 34 0.000035840137 0.000035840137 1 24553477.571807 24553477.571807 24553477.571807 6.0287326086924e+14
773	304250 38 34 34 0.000035840137 0.000035840137 1 24553477.571807 24553477.571807 24553477.571807 6.0287326086924e+14
775	304288 38 34 34 0.000035840137 0.000035840137 1 24553477.571807 24553477.571807 24553477.571807 6.0287326086924e+14
777	304326 24 34 34 0.000035840137 0.000035840137 1 0 0 0 0
779	304350 24 34 34 0.000035840137 0.000035840137 1 0 0 0 0
781	304374 24 34 34 0.000035840137 0.000035840137 1 0 0 0 0
783	304398 24 34 34 0.000035840137 0.000035840137 1 0 0 0 0
785	304422 24 34 34 0.000035840137 0.000035840137 1 0 0 0 0
787	304446 24 34 34 0.000035840137 0.000035840137 1 0 0 0 0
789	304470 24 34 34 0.000035840137 0.000035840137 1 0 0 0 0
791	304494 24 34 34 0.000035840137 0.000035840137 1 0 0 0 0
793	304518 24 34 34 0.000035840137 0.000035840137 1 0 0 0 0
795	304542 24 34 34 0.000035840137 0.000035840137 1 0 0 0 0
797	304566 24 34 34 0.000035840137 0.000035840137 1 0 0 0 0
799	304590 24 34 34 0.000035840137 0.000035840137 1 0 0 0 0
801	304614 38 34 34 0.000035840137 0.000035840137 1 24553477.571807 24553477.571807 24553477.571807 6.0287326086924e+14
803	304652 38 34 34 0.000035840137 0.000035840137 1 26339185.031575 26339185.031575 26339185.031575 6.9375266812755e+14
805	304690 24 34 34 0.000035840137 0.000035840137 1 0 0 0 0
807	304714 24 34 34 0.000035840137 0.000035840137 1 0 0 0 0
810	304738 38 34 34 0.000035840137 0.000035840137 1 26339185.031575 26339185.031575 26339185.031575 6.9375266812755e+14
812	304776 38 34 34 0.000035840137 0.000035840137 1 26339185.031575 26339185.031575 26339185.031575 6.9375266812755e+14
814	304814 24 34 34 0.000035840137 0.000035840137 1 0 0 0 0
816	304838 24 34 34 0.000035840137 0.000035840137 1 0 0 0 0
818	304862 38 34 34 0.000035840137 0.000035840137 1 26339185.031575 26339185.031575 26339185.031575 6.9375266812755e+14
819	304900 38 34 34 0.000035840137 0.000035840137 1 26.339185031575 26.339185031575 26.339185031575 693.75266812755
823	304938 24 34 34 0.000035840137 0.000035840137 1 0 0 0 0
825	304962 24 34 34 0.000035840137 0.000035840137 1 0 0 0 0
827	304986 24 34 34 0.000035840137 0.000035840137 1 0 0 0 0
829	305010 24 34 34 0.000035840137 0.000035840137 1 0 0 0 0
831	305034 24 34 34 0.000035840137 0.000035840137 1 0 0 0 0
833	305058 24 34 34 0.000035840137 0.000035840137 1 0 0 0 0
835	305082 24 34 34 0.000035840137 0.000035840137 1 0 0 0 0
837	305106 24 34 34 0.000035840137 0.000035840137 1 0 0 0 0
839	305130 24 34 34 0.000035840137 0.000035840137 1 0 0 0 0
841	305154 24 34 34 0.000035840137 0.000035840137 1 0 0 0 0
842	305178 24 34 34 0.000035840137 0.000035840137 1 0 0 0 0
848	305202 24 34 34 0.000035840137 0.000035840137 1 0 0 0 0
850	305226 24 34 34 0.000035840137 0.000035840137 1 0 0 0 0
852	305250 24 34 34 0.000035840137 0.000035840137 1 0 0 0 0
854	305274 24 34 34 0.000035840137 0.000035840137 1 0 0 0 0
856	305298 24 34 34 0.000035840137 0.000035840137 1 0 0 0 0
858	305322 24 34 34 0.000035840137 0.000035840137 1 0 0 0 0
860	305346 24 34 34 0.000035840137 0.000035840137 1 0 0 0 0
862	305370 24 34 34 0.000035840137 0.000035840137 1 0 0 0 0
864	305394 24 34 34 0.000035840137 0.000035840137 1 0 0 0 0
866	305418 24 34 34 0.000035840137 0.000035840137 1 0 0 0 0
868	305442 24 34 34 0.000035840137 0.000035840137 1 0 0 0 0
870	305466 24 34 34 0.000035840137 0.000035840137 1 0 0 0 0
872	305490 38 34 34 0.000035840137 0.000035840137 1 23660623.841923 23660623.841923 23660623.841923 5.5982512058899e+14
874	305528 37 34 34 0.000035840137 0.000035840137 1 20535635.78733 20535635.78733 20535635.78733 4.2171233718986e+14
876	305565 24 34 34 0.000035840137 0.000035840137 1 0 0 0 0
878	305589 24 34 34 0.000035840137 0.000035840137 1 0 0 0 0
880	305613 24 34 34 0.000035840137 0.000035840137 1 0 0 0 0
882	305637 24 34 34 0.000035840137 0.000035840137 1 0 0 0 0
884	305661 38 34 34 0.000035840137 0.000035840137 1 24553477.571807 24553477.571807 24553477.571807 6.0287326086924e+14
886	305699 38 34 34 0.000035840137 0.000035840137 1 23660623.841923 23660623.841923 23660623.841923 5.5982512058899e+14
888	305737 24 34 34 0.000035840137 0.000035840137 1 0 0 0 0
890	305761 24 34 34 0.000035840137 0.000035840137 1 0 0 0 0
892	305785 24 34 34 0.000035840137 0.000035840137 1 0 0 0 0
894	305809 24 34 34 0.000035840137 0.000035840137 1 0 0 0 0
903	305833 24 34 34 0.000035840137 0.000035840137 1 0 0 0 0
905	305857 24 34 34 0.000035840137 0.000035840137 1 0 0 0 0
908	305881 24 34 34 0.000035840137 0.000035840137 1 0 0 0 0
909	305905 24 34 34 0.000035840137 0.000035840137 1 0 0 0 0
911	305929 24 34 34 0.000035840137 0.000035840137 1 0 0 0 0
913	305953 24 34 34 0.000035840137 0.000035840137 1 0 0 0 0
915	305977 24 34 34 0.000035840137 0.000035840137 1 0 0 0 0
917	306001 24 34 34 0.000035840137 0.000035840137 1 0 0 0 0
919	306025 24 34 34 0.000035840137 0.000035840137 1 0 0 0 0
921	306049 24 34 34 0.000035840137 0.000035840137 1 0 0 0 0
923	306073 38 34 34 0.000035840137 0.000035840137 1 24553477.571807 24553477.571807 24553477.571807 6.0287326086924e+14
925	306111 38 34 34 0.000035840137 0.000035840137 1 24553477.571807 24553477.571807 24553477.571807 6.0287326086924e+14
927	306149 24 34 34 0.000035840137 0.000035840137 1 0 0 0 0
929	306173 24 34 34 0.000035840137 0.000035840137 1 0 0 0 0
931	306197 24 34 34 0.000035840137 0.000035840137 1 0 0 0 0
933	306221 24 34 34 0.000035840137 0.000035840137 1 0 0 0 0
935	306245 38 34 34 0.000035840137 0.000035840137 1 24553477.571807 24553477.571807 24553477.571807 6.0287326086924e+14
937	306283 38 34 34 0.000035840137 0.000035840137 1 24553477.571807 24553477.571807 24553477.571807 6.0287326086924e+14
939	306321 24 34 34 0.000035840137 0.000035840137 1 0 0 0 0
941	306345 24 34 34 0.000035840137 0.000035840137 1 0 0 0 0
943	306369 24 34 34 0.000035840137 0.000035840137 1 0 0 0 0
945	306393 24 34 34 0.000035840137 0.000035840137 1 0 0 0 0
947	306417 24 34 34 0.000035840137 0.000035840137 1 0 0 0 0
949	306441 24 34 34 0.000035840137 0.000035840137 1 0 0 0 0
952	306465 24 34 34 0.000035840137 0.000035840137 1 0 0 0 0
954	306489 24 34 34 0.000035840137 0.000035840137 1 0 0 0 0
956	306513 24 34 34 0.000035840137 0.000035840137 1 0 0 0 0
958	306537 24 34 34 0.000035840137 0.000035840137 1 0 0 0 0
960	306561 24 34 34 0.000035840137 0.000035840137 1 0 0 0 0
961	306585 24 34 34 0.000035840137 0.000035840137 1 0 0 0 0
965	306609 38 34 34 0.000035840137 0.000035840137 1 26339185.031575 26339185.031575 26339185.031575 6.9375266812755e+14
967	306647 38 34 34 0.000035840137 0.000035840137 1 24553477.571807 24553477.571807 24553477.571807 6.0287326086924e+14
969	306685 24 34 34 0.000035840137 0.000035840137 1 0 0 0 0
971	306709 24 34 34 0.000035840137 0.000035840137 1 0 0 0 0
973	306733 24 34 34 0.000035840137 0.000035840137 1 0 0 0 0
975	306757 24 34 34 0.000035840137 0.000035840137 1 0 0 0 0
977	306781 38 34 34 0.000035840137 0.000035840137 1 26339185.031575 26339185.031575 26339185.031575 6.9375266812755e+14
979	306819 38 34 34 0.000035840137 0.000035840137 1 26339185.031575 26339185.031575 26339185.031575 6.9375266812755e+14
981	306857 24 34 34 0.000035840137 0.000035840137 1 0 0 0 0
983	306881 24 34 34 0.000035840137 0.000035840137 1 0 0 0 0
984	306905 38 34 34 0.000035840137 0.000035840137 1 26339185.031575 26339185.031575 26339185.031575 6.9375266812755e+14
1002	306943 39 34 34 0.000035840137 0.000035840137 1 14285659.678142 14285659.678142 14285659.678142 2.040800724397e+14
1004	306982 39 34 34 0.000035840137 0.000035840137 1 14285659.678142 14285659.678142 14285659.678142 2.040800724397e+14
1005	307021 27 34 34 0.0000193 0.0000193 1 1.93e-05 1.93e-05 1.93e-05 3.7249e-10
1007	307048 27 34 34 0.0000193 0.0000193 1 1.93e-05 1.93e-05 1.93e-05 3.7249e-10
1008	307075 20 34 34 0.0000193 0.0000193 1 0 0 0 0
1009	307095 20 34 34 0.0000193 0.0000193 1 0 0 0 0
1013	307115 25 34 34 0.000035840137 0.000035840137 1 0 0 0 0
1015	307140 25 34 34 0.000035840137 0.000035840137 1 0 0 0 0

