file 360556 1761788288                                          
version 3
run General-0-20251029-22:35:28-42059
attr configname General
attr datetime 20251029-22:35:28
attr datetimef 20251029-223528
attr experiment General
attr inifile omnetpp.ini
attr iterationvars ""
attr iterationvarsd ""
attr iterationvarsf ""
attr measurement ""
attr network inet.networks.tsn.TsnLinearNetwork
attr processid 42059
attr repetition 0
attr replication #0
attr resultdir results
attr runnumber 0
attr seedset 0
config image-path ../../omnetpp/inet-4.5.4/images
config network inet.networks.tsn.TsnLinearNetwork
config sim-time-limit 1s
config description "Traffic shaping using time-aware shapers"
config **.displayGateSchedules true
config **.gateFilter "\"**.eth[1].**\""
config **.gateScheduleVisualizer.height 16
config **.gateScheduleVisualizer.placementHint "\"top\""
config *.client.numApps 2
config *.client.app[*].typename UdpSourceApp
config *.client.app[*].io.destAddress "\"server\""
config *.client.app[0].display-name "speed/torque command"
config *.client.app[0].io.destPort 1000
config *.client.app[0].source.productionInterval exponential(1ms)
config *.client.app[0].source.packetLength "128B - 64B"
config *.client.app[1].display-name "brake command"
config *.client.app[1].io.destPort 1001
config *.client.app[1].source.productionInterval exponential(10ms)
config *.client.app[1].source.packetLength 256B
config *.server.numApps 2
config *.server.app[*].typename UdpSinkApp
config *.server.app[0].io.localPort 1000
config *.server.app[1].io.localPort 1001
config *.client.hasOutgoingStreams true
config *.client.bridging.streamIdentifier.identifier.mapping "[{stream: \"speed/torque command\", packetFilter: expr(udp.destPort == 1000)},\n                                                         {stream: \"brake command\", packetFilter: expr(udp.destPort == 1001)}]"
config *.client.bridging.streamCoder.encoder.mapping "[{stream: \"speed/torque command\", pcp: 1},\n                                                 {stream: \"brake command\", pcp: 7}]"
config *.switch.hasEgressTrafficShaping true
config *.switch.bridging.directionReverser.reverser.excludeEncapsulationProtocols "[\"ieee8021qctag\"]"
config *.switch.eth[*].macLayer.queue.numTrafficClasses 8
config *.switch.eth[*].macLayer.queue.*[1].display-name "speed/torque command"
config *.switch.eth[*].macLayer.queue.transmissionGate[1].offset 0ms
config *.switch.eth[*].macLayer.queue.transmissionGate[1].durations "[4ms, 6ms]"
config *.switch.eth[*].macLayer.queue.*[7].display-name "brake command"
config *.switch.eth[*].macLayer.queue.transmissionGate[7].offset 6ms
config *.switch.eth[*].macLayer.queue.transmissionGate[7].durations "[2ms, 8ms]"

vector 0 TsnLinearNetwork.client.bridging.directionReverser.reverser incomingPacketLengths:vector ETV
attr interpolationmode none
attr recordingmode vector
attr source "packetLength(merge(packetPushedIn, packetPulledIn))"
attr title "incoming packet lengths"
attr unit b
vector 1 TsnLinearNetwork.client.bridging.directionReverser.reverser incomingDataRate:vector ETV
attr interpolationmode linear
attr recordingmode vector
attr source "throughput(merge(packetPushedIn, packetPulledIn))"
attr title "incoming data rate"
attr unit bps
vector 2 TsnLinearNetwork.client.bridging.directionReverser.reverser outgoingPacketLengths:vector ETV
attr interpolationmode none
attr recordingmode vector
attr source "packetLength(merge(packetPushedOut, packetPulledOut))"
attr title "outgoing packet lengths"
attr unit b
vector 3 TsnLinearNetwork.client.bridging.directionReverser.reverser outgoingDataRate:vector ETV
attr interpolationmode linear
attr recordingmode vector
attr source "throughput(merge(packetPushedOut, packetPulledOut))"
attr title "outgoing data rate"
attr unit bps
vector 4 TsnLinearNetwork.client.bridging.directionReverser.reverser flowIncomingPacketLengths:vector ETV
attr interpolationmode none
attr recordingmode vector
attr source "packetLength(demuxFlow(merge(packetPushedIn, packetPulledIn)))"
attr title "flow specific incoming packet lengths"
attr unit b
vector 5 TsnLinearNetwork.client.bridging.directionReverser.reverser flowIncomingDataRate:vector ETV
attr interpolationmode linear
attr recordingmode vector
attr source "throughput(demuxFlow(merge(packetPushedIn, packetPulledIn)))"
attr title "flow specific incoming data rate"
attr unit bps
vector 6 TsnLinearNetwork.client.bridging.directionReverser.reverser flowOutgoingPacketLengths:vector ETV
attr interpolationmode none
attr recordingmode vector
attr source "packetLength(demuxFlow(merge(packetPushedOut, packetPulledOut)))"
attr title "flow specific outgoing packet lengths"
attr unit b
vector 7 TsnLinearNetwork.client.bridging.directionReverser.reverser flowOutgoingDataRate:vector ETV
attr interpolationmode linear
attr recordingmode vector
attr source "throughput(demuxFlow(merge(packetPushedOut, packetPulledOut)))"
attr title "flow specific outgoing data rate"
attr unit bps
vector 8 TsnLinearNetwork.client.bridging.directionReverser.join packetLengths:vector ETV
attr interpolationmode none
attr recordingmode vector
attr source "packetLength(merge(packetPushed, packetPulled))"
attr title "packet lengths"
attr unit b
vector 9 TsnLinearNetwork.client.bridging.directionReverser.join dataRate:vector ETV
attr interpolationmode linear
attr recordingmode vector
attr source "throughput(merge(packetPushed, packetPulled))"
attr title "data rate"
attr unit bps
vector 10 TsnLinearNetwork.client.bridging.streamIdentifier.identifier incomingPacketLengths:vector ETV
attr interpolationmode none
attr recordingmode vector
attr source "packetLength(merge(packetPushedIn, packetPulledIn))"
attr title "incoming packet lengths"
attr unit b
vector 11 TsnLinearNetwork.client.bridging.streamIdentifier.identifier incomingDataRate:vector ETV
attr interpolationmode linear
attr recordingmode vector
attr source "throughput(merge(packetPushedIn, packetPulledIn))"
attr title "incoming data rate"
attr unit bps
vector 12 TsnLinearNetwork.client.bridging.streamIdentifier.identifier outgoingPacketLengths:vector ETV
attr interpolationmode none
attr recordingmode vector
attr source "packetLength(merge(packetPushedOut, packetPulledOut))"
attr title "outgoing packet lengths"
attr unit b
vector 13 TsnLinearNetwork.client.bridging.streamIdentifier.identifier outgoingDataRate:vector ETV
attr interpolationmode linear
attr recordingmode vector
attr source "throughput(merge(packetPushedOut, packetPulledOut))"
attr title "outgoing data rate"
attr unit bps
vector 14 TsnLinearNetwork.client.bridging.streamIdentifier.identifier flowIncomingPacketLengths:vector ETV
attr interpolationmode none
attr recordingmode vector
attr source "packetLength(demuxFlow(merge(packetPushedIn, packetPulledIn)))"
attr title "flow specific incoming packet lengths"
attr unit b
vector 15 TsnLinearNetwork.client.bridging.streamIdentifier.identifier flowIncomingDataRate:vector ETV
attr interpolationmode linear
attr recordingmode vector
attr source "throughput(demuxFlow(merge(packetPushedIn, packetPulledIn)))"
attr title "flow specific incoming data rate"
attr unit bps
vector 16 TsnLinearNetwork.client.bridging.streamIdentifier.identifier flowOutgoingPacketLengths:vector ETV
attr interpolationmode none
attr recordingmode vector
attr source "packetLength(demuxFlow(merge(packetPushedOut, packetPulledOut)))"
attr title "flow specific outgoing packet lengths"
attr unit b
vector 17 TsnLinearNetwork.client.bridging.streamIdentifier.identifier flowOutgoingDataRate:vector ETV
attr interpolationmode linear
attr recordingmode vector
attr source "throughput(demuxFlow(merge(packetPushedOut, packetPulledOut)))"
attr title "flow specific outgoing data rate"
attr unit bps
vector 18 TsnLinearNetwork.client.bridging.streamCoder.decoder incomingPacketLengths:vector ETV
attr interpolationmode none
attr recordingmode vector
attr source "packetLength(merge(packetPushedIn, packetPulledIn))"
attr title "incoming packet lengths"
attr unit b
vector 19 TsnLinearNetwork.client.bridging.streamCoder.decoder incomingDataRate:vector ETV
attr interpolationmode linear
attr recordingmode vector
attr source "throughput(merge(packetPushedIn, packetPulledIn))"
attr title "incoming data rate"
attr unit bps
vector 20 TsnLinearNetwork.client.bridging.streamCoder.decoder outgoingPacketLengths:vector ETV
attr interpolationmode none
attr recordingmode vector
attr source "packetLength(merge(packetPushedOut, packetPulledOut))"
attr title "outgoing packet lengths"
attr unit b
vector 21 TsnLinearNetwork.client.bridging.streamCoder.decoder outgoingDataRate:vector ETV
attr interpolationmode linear
attr recordingmode vector
attr source "throughput(merge(packetPushedOut, packetPulledOut))"
attr title "outgoing data rate"
attr unit bps
vector 22 TsnLinearNetwork.client.bridging.streamCoder.decoder flowIncomingPacketLengths:vector ETV
attr interpolationmode none
attr recordingmode vector
attr source "packetLength(demuxFlow(merge(packetPushedIn, packetPulledIn)))"
attr title "flow specific incoming packet lengths"
attr unit b
vector 23 TsnLinearNetwork.client.bridging.streamCoder.decoder flowIncomingDataRate:vector ETV
attr interpolationmode linear
attr recordingmode vector
attr source "throughput(demuxFlow(merge(packetPushedIn, packetPulledIn)))"
attr title "flow specific incoming data rate"
attr unit bps
vector 24 TsnLinearNetwork.client.bridging.streamCoder.decoder flowOutgoingPacketLengths:vector ETV
attr interpolationmode none
attr recordingmode vector
attr source "packetLength(demuxFlow(merge(packetPushedOut, packetPulledOut)))"
attr title "flow specific outgoing packet lengths"
attr unit b
vector 25 TsnLinearNetwork.client.bridging.streamCoder.decoder flowOutgoingDataRate:vector ETV
attr interpolationmode linear
attr recordingmode vector
attr source "throughput(demuxFlow(merge(packetPushedOut, packetPulledOut)))"
attr title "flow specific outgoing data rate"
attr unit bps
vector 26 TsnLinearNetwork.client.bridging.streamCoder.encoder incomingPacketLengths:vector ETV
attr interpolationmode none
attr recordingmode vector
attr source "packetLength(merge(packetPushedIn, packetPulledIn))"
attr title "incoming packet lengths"
attr unit b
vector 27 TsnLinearNetwork.client.bridging.streamCoder.encoder incomingDataRate:vector ETV
attr interpolationmode linear
attr recordingmode vector
attr source "throughput(merge(packetPushedIn, packetPulledIn))"
attr title "incoming data rate"
attr unit bps
vector 28 TsnLinearNetwork.client.bridging.streamCoder.encoder outgoingPacketLengths:vector ETV
attr interpolationmode none
attr recordingmode vector
attr source "packetLength(merge(packetPushedOut, packetPulledOut))"
attr title "outgoing packet lengths"
attr unit b
vector 29 TsnLinearNetwork.client.bridging.streamCoder.encoder outgoingDataRate:vector ETV
attr interpolationmode linear
attr recordingmode vector
attr source "throughput(merge(packetPushedOut, packetPulledOut))"
attr title "outgoing data rate"
attr unit bps
vector 30 TsnLinearNetwork.client.bridging.streamCoder.encoder flowIncomingPacketLengths:vector ETV
attr interpolationmode none
attr recordingmode vector
attr source "packetLength(demuxFlow(merge(packetPushedIn, packetPulledIn)))"
attr title "flow specific incoming packet lengths"
attr unit b
vector 31 TsnLinearNetwork.client.bridging.streamCoder.encoder flowIncomingDataRate:vector ETV
attr interpolationmode linear
attr recordingmode vector
attr source "throughput(demuxFlow(merge(packetPushedIn, packetPulledIn)))"
attr title "flow specific incoming data rate"
attr unit bps
vector 32 TsnLinearNetwork.client.bridging.streamCoder.encoder flowOutgoingPacketLengths:vector ETV
attr interpolationmode none
attr recordingmode vector
attr source "packetLength(demuxFlow(merge(packetPushedOut, packetPulledOut)))"
attr title "flow specific outgoing packet lengths"
attr unit b
vector 33 TsnLinearNetwork.client.bridging.streamCoder.encoder flowOutgoingDataRate:vector ETV
attr interpolationmode linear
attr recordingmode vector
attr source "throughput(demuxFlow(merge(packetPushedOut, packetPulledOut)))"
attr title "flow specific outgoing data rate"
attr unit bps
vector 34 TsnLinearNetwork.client.ethernet.macHeaderInserter incomingPacketLengths:vector ETV
attr interpolationmode none
attr recordingmode vector
attr source "packetLength(merge(packetPushedIn, packetPulledIn))"
attr title "incoming packet lengths"
attr unit b
vector 35 TsnLinearNetwork.client.ethernet.macHeaderInserter incomingDataRate:vector ETV
attr interpolationmode linear
attr recordingmode vector
attr source "throughput(merge(packetPushedIn, packetPulledIn))"
attr title "incoming data rate"
attr unit bps
vector 36 TsnLinearNetwork.client.ethernet.macHeaderInserter outgoingPacketLengths:vector ETV
attr interpolationmode none
attr recordingmode vector
attr source "packetLength(merge(packetPushedOut, packetPulledOut))"
attr title "outgoing packet lengths"
attr unit b
vector 37 TsnLinearNetwork.client.ethernet.macHeaderInserter outgoingDataRate:vector ETV
attr interpolationmode linear
attr recordingmode vector
attr source "throughput(merge(packetPushedOut, packetPulledOut))"
attr title "outgoing data rate"
attr unit bps
vector 38 TsnLinearNetwork.client.ethernet.macHeaderInserter flowIncomingPacketLengths:vector ETV
attr interpolationmode none
attr recordingmode vector
attr source "packetLength(demuxFlow(merge(packetPushedIn, packetPulledIn)))"
attr title "flow specific incoming packet lengths"
attr unit b
vector 39 TsnLinearNetwork.client.ethernet.macHeaderInserter flowIncomingDataRate:vector ETV
attr interpolationmode linear
attr recordingmode vector
attr source "throughput(demuxFlow(merge(packetPushedIn, packetPulledIn)))"
attr title "flow specific incoming data rate"
attr unit bps
vector 40 TsnLinearNetwork.client.ethernet.macHeaderInserter flowOutgoingPacketLengths:vector ETV
attr interpolationmode none
attr recordingmode vector
attr source "packetLength(demuxFlow(merge(packetPushedOut, packetPulledOut)))"
attr title "flow specific outgoing packet lengths"
attr unit b
vector 41 TsnLinearNetwork.client.ethernet.macHeaderInserter flowOutgoingDataRate:vector ETV
attr interpolationmode linear
attr recordingmode vector
attr source "throughput(demuxFlow(merge(packetPushedOut, packetPulledOut)))"
attr title "flow specific outgoing data rate"
attr unit bps
vector 42 TsnLinearNetwork.client.ethernet.paddingInserter incomingPacketLengths:vector ETV
attr interpolationmode none
attr recordingmode vector
attr source "packetLength(merge(packetPushedIn, packetPulledIn))"
attr title "incoming packet lengths"
attr unit b
vector 43 TsnLinearNetwork.client.ethernet.paddingInserter incomingDataRate:vector ETV
attr interpolationmode linear
attr recordingmode vector
attr source "throughput(merge(packetPushedIn, packetPulledIn))"
attr title "incoming data rate"
attr unit bps
vector 44 TsnLinearNetwork.client.ethernet.paddingInserter outgoingPacketLengths:vector ETV
attr interpolationmode none
attr recordingmode vector
attr source "packetLength(merge(packetPushedOut, packetPulledOut))"
attr title "outgoing packet lengths"
attr unit b
vector 45 TsnLinearNetwork.client.ethernet.paddingInserter outgoingDataRate:vector ETV
attr interpolationmode linear
attr recordingmode vector
attr source "throughput(merge(packetPushedOut, packetPulledOut))"
attr title "outgoing data rate"
attr unit bps
vector 46 TsnLinearNetwork.client.ethernet.paddingInserter flowIncomingPacketLengths:vector ETV
attr interpolationmode none
attr recordingmode vector
attr source "packetLength(demuxFlow(merge(packetPushedIn, packetPulledIn)))"
attr title "flow specific incoming packet lengths"
attr unit b
vector 47 TsnLinearNetwork.client.ethernet.paddingInserter flowIncomingDataRate:vector ETV
attr interpolationmode linear
attr recordingmode vector
attr source "throughput(demuxFlow(merge(packetPushedIn, packetPulledIn)))"
attr title "flow specific incoming data rate"
attr unit bps
vector 48 TsnLinearNetwork.client.ethernet.paddingInserter flowOutgoingPacketLengths:vector ETV
attr interpolationmode none
attr recordingmode vector
attr source "packetLength(demuxFlow(merge(packetPushedOut, packetPulledOut)))"
attr title "flow specific outgoing packet lengths"
attr unit b
vector 49 TsnLinearNetwork.client.ethernet.paddingInserter flowOutgoingDataRate:vector ETV
attr interpolationmode linear
attr recordingmode vector
attr source "throughput(demuxFlow(merge(packetPushedOut, packetPulledOut)))"
attr title "flow specific outgoing data rate"
attr unit bps
vector 50 TsnLinearNetwork.client.ethernet.fcsInserter incomingPacketLengths:vector ETV
attr interpolationmode none
attr recordingmode vector
attr source "packetLength(merge(packetPushedIn, packetPulledIn))"
attr title "incoming packet lengths"
attr unit b
vector 51 TsnLinearNetwork.client.ethernet.fcsInserter incomingDataRate:vector ETV
attr interpolationmode linear
attr recordingmode vector
attr source "throughput(merge(packetPushedIn, packetPulledIn))"
attr title "incoming data rate"
attr unit bps
vector 52 TsnLinearNetwork.client.ethernet.fcsInserter outgoingPacketLengths:vector ETV
attr interpolationmode none
attr recordingmode vector
attr source "packetLength(merge(packetPushedOut, packetPulledOut))"
attr title "outgoing packet lengths"
attr unit b
vector 53 TsnLinearNetwork.client.ethernet.fcsInserter outgoingDataRate:vector ETV
attr interpolationmode linear
attr recordingmode vector
attr source "throughput(merge(packetPushedOut, packetPulledOut))"
attr title "outgoing data rate"
attr unit bps
vector 54 TsnLinearNetwork.client.ethernet.fcsInserter flowIncomingPacketLengths:vector ETV
attr interpolationmode none
attr recordingmode vector
attr source "packetLength(demuxFlow(merge(packetPushedIn, packetPulledIn)))"
attr title "flow specific incoming packet lengths"
attr unit b
vector 55 TsnLinearNetwork.client.ethernet.fcsInserter flowIncomingDataRate:vector ETV
attr interpolationmode linear
attr recordingmode vector
attr source "throughput(demuxFlow(merge(packetPushedIn, packetPulledIn)))"
attr title "flow specific incoming data rate"
attr unit bps
vector 56 TsnLinearNetwork.client.ethernet.fcsInserter flowOutgoingPacketLengths:vector ETV
attr interpolationmode none
attr recordingmode vector
attr source "packetLength(demuxFlow(merge(packetPushedOut, packetPulledOut)))"
attr title "flow specific outgoing packet lengths"
attr unit b
vector 57 TsnLinearNetwork.client.ethernet.fcsInserter flowOutgoingDataRate:vector ETV
attr interpolationmode linear
attr recordingmode vector
attr source "throughput(demuxFlow(merge(packetPushedOut, packetPulledOut)))"
attr title "flow specific outgoing data rate"
attr unit bps
vector 58 TsnLinearNetwork.client.ethernet.macHeaderChecker incomingPacketLengths:vector ETV
attr interpolationmode none
attr recordingmode vector
attr source "packetLength(merge(packetPushedIn, packetPulledIn))"
attr title "incoming packet lengths"
attr unit b
vector 59 TsnLinearNetwork.client.ethernet.macHeaderChecker incomingDataRate:vector ETV
attr interpolationmode linear
attr recordingmode vector
attr source "throughput(merge(packetPushedIn, packetPulledIn))"
attr title "incoming data rate"
attr unit bps
vector 60 TsnLinearNetwork.client.ethernet.macHeaderChecker outgoingPacketLengths:vector ETV
attr interpolationmode none
attr recordingmode vector
attr source "packetLength(merge(packetPushedOut, packetPulledOut))"
attr title "outgoing packet lengths"
attr unit b
vector 61 TsnLinearNetwork.client.ethernet.macHeaderChecker outgoingDataRate:vector ETV
attr interpolationmode linear
attr recordingmode vector
attr source "throughput(merge(packetPushedOut, packetPulledOut))"
attr title "outgoing data rate"
attr unit bps
vector 62 TsnLinearNetwork.client.ethernet.macHeaderChecker droppedPacketLengths:vector ETV
attr interpolationmode none
attr recordingmode vector
attr source packetLength(packetDropped)
attr title "dropped packet lengths"
attr unit b
vector 63 TsnLinearNetwork.client.ethernet.macHeaderChecker droppedDataRate:vector ETV
attr interpolationmode linear
attr recordingmode vector
attr source throughput(packetDropped)
attr title "dropped data rate"
attr unit bps
vector 64 TsnLinearNetwork.client.ethernet.macHeaderChecker flowIncomingPacketLengths:vector ETV
attr interpolationmode none
attr recordingmode vector
attr source "packetLength(demuxFlow(merge(packetPushedIn, packetPulledIn)))"
attr title "flow specific incoming packet lengths"
attr unit b
vector 65 TsnLinearNetwork.client.ethernet.macHeaderChecker flowIncomingDataRate:vector ETV
attr interpolationmode linear
attr recordingmode vector
attr source "throughput(demuxFlow(merge(packetPushedIn, packetPulledIn)))"
attr title "flow specific incoming data rate"
attr unit bps
vector 66 TsnLinearNetwork.client.ethernet.macHeaderChecker flowOutgoingPacketLengths:vector ETV
attr interpolationmode none
attr recordingmode vector
attr source "packetLength(demuxFlow(merge(packetPushedOut, packetPulledOut)))"
attr title "flow specific outgoing packet lengths"
attr unit b
vector 67 TsnLinearNetwork.client.ethernet.macHeaderChecker flowOutgoingDataRate:vector ETV
attr interpolationmode linear
attr recordingmode vector
attr source "throughput(demuxFlow(merge(packetPushedOut, packetPulledOut)))"
attr title "flow specific outgoing data rate"
attr unit bps
vector 68 TsnLinearNetwork.client.ethernet.macHeaderChecker flowDroppedPacketLengths:vector ETV
attr interpolationmode none
attr recordingmode vector
attr source packetLength(demuxFlow(packetDropped))
attr title "flow specific dropped packet lengths"
attr unit b
vector 69 TsnLinearNetwork.client.ethernet.macHeaderChecker flowDroppedDataRate:vector ETV
attr interpolationmode linear
attr recordingmode vector
attr source throughput(demuxFlow(packetDropped))
attr title "flow specific dropped data rate"
attr unit bps
vector 70 TsnLinearNetwork.client.ethernet.fcsChecker incomingPacketLengths:vector ETV
attr interpolationmode none
attr recordingmode vector
attr source "packetLength(merge(packetPushedIn, packetPulledIn))"
attr title "incoming packet lengths"
attr unit b
vector 71 TsnLinearNetwork.client.ethernet.fcsChecker incomingDataRate:vector ETV
attr interpolationmode linear
attr recordingmode vector
attr source "throughput(merge(packetPushedIn, packetPulledIn))"
attr title "incoming data rate"
attr unit bps
vector 72 TsnLinearNetwork.client.ethernet.fcsChecker outgoingPacketLengths:vector ETV
attr interpolationmode none
attr recordingmode vector
attr source "packetLength(merge(packetPushedOut, packetPulledOut))"
attr title "outgoing packet lengths"
attr unit b
vector 73 TsnLinearNetwork.client.ethernet.fcsChecker outgoingDataRate:vector ETV
attr interpolationmode linear
attr recordingmode vector
attr source "throughput(merge(packetPushedOut, packetPulledOut))"
attr title "outgoing data rate"
attr unit bps
vector 74 TsnLinearNetwork.client.ethernet.fcsChecker droppedPacketLengths:vector ETV
attr interpolationmode none
attr recordingmode vector
attr source packetLength(packetDropped)
attr title "dropped packet lengths"
attr unit b
vector 75 TsnLinearNetwork.client.ethernet.fcsChecker droppedDataRate:vector ETV
attr interpolationmode linear
attr recordingmode vector
attr source throughput(packetDropped)
attr title "dropped data rate"
attr unit bps
vector 76 TsnLinearNetwork.client.ethernet.fcsChecker flowIncomingPacketLengths:vector ETV
attr interpolationmode none
attr recordingmode vector
attr source "packetLength(demuxFlow(merge(packetPushedIn, packetPulledIn)))"
attr title "flow specific incoming packet lengths"
attr unit b
vector 77 TsnLinearNetwork.client.ethernet.fcsChecker flowIncomingDataRate:vector ETV
attr interpolationmode linear
attr recordingmode vector
attr source "throughput(demuxFlow(merge(packetPushedIn, packetPulledIn)))"
attr title "flow specific incoming data rate"
attr unit bps
vector 78 TsnLinearNetwork.client.ethernet.fcsChecker flowOutgoingPacketLengths:vector ETV
attr interpolationmode none
attr recordingmode vector
attr source "packetLength(demuxFlow(merge(packetPushedOut, packetPulledOut)))"
attr title "flow specific outgoing packet lengths"
attr unit b
vector 79 TsnLinearNetwork.client.ethernet.fcsChecker flowOutgoingDataRate:vector ETV
attr interpolationmode linear
attr recordingmode vector
attr source "throughput(demuxFlow(merge(packetPushedOut, packetPulledOut)))"
attr title "flow specific outgoing data rate"
attr unit bps
vector 80 TsnLinearNetwork.client.ethernet.fcsChecker flowDroppedPacketLengths:vector ETV
attr interpolationmode none
attr recordingmode vector
attr source packetLength(demuxFlow(packetDropped))
attr title "flow specific dropped packet lengths"
attr unit b
vector 81 TsnLinearNetwork.client.ethernet.fcsChecker flowDroppedDataRate:vector ETV
attr interpolationmode linear
attr recordingmode vector
attr source throughput(demuxFlow(packetDropped))
attr title "flow specific dropped data rate"
attr unit bps
vector 82 TsnLinearNetwork.client.ieee8021q.qTagHeaderInserter incomingPacketLengths:vector ETV
attr interpolationmode none
attr recordingmode vector
attr source "packetLength(merge(packetPushedIn, packetPulledIn))"
attr title "incoming packet lengths"
attr unit b
vector 83 TsnLinearNetwork.client.ieee8021q.qTagHeaderInserter incomingDataRate:vector ETV
attr interpolationmode linear
attr recordingmode vector
attr source "throughput(merge(packetPushedIn, packetPulledIn))"
attr title "incoming data rate"
attr unit bps
vector 84 TsnLinearNetwork.client.ieee8021q.qTagHeaderInserter outgoingPacketLengths:vector ETV
attr interpolationmode none
attr recordingmode vector
attr source "packetLength(merge(packetPushedOut, packetPulledOut))"
attr title "outgoing packet lengths"
attr unit b
vector 85 TsnLinearNetwork.client.ieee8021q.qTagHeaderInserter outgoingDataRate:vector ETV
attr interpolationmode linear
attr recordingmode vector
attr source "throughput(merge(packetPushedOut, packetPulledOut))"
attr title "outgoing data rate"
attr unit bps
vector 86 TsnLinearNetwork.client.ieee8021q.qTagHeaderInserter flowIncomingPacketLengths:vector ETV
attr interpolationmode none
attr recordingmode vector
attr source "packetLength(demuxFlow(merge(packetPushedIn, packetPulledIn)))"
attr title "flow specific incoming packet lengths"
attr unit b
vector 87 TsnLinearNetwork.client.ieee8021q.qTagHeaderInserter flowIncomingDataRate:vector ETV
attr interpolationmode linear
attr recordingmode vector
attr source "throughput(demuxFlow(merge(packetPushedIn, packetPulledIn)))"
attr title "flow specific incoming data rate"
attr unit bps
vector 88 TsnLinearNetwork.client.ieee8021q.qTagHeaderInserter flowOutgoingPacketLengths:vector ETV
attr interpolationmode none
attr recordingmode vector
attr source "packetLength(demuxFlow(merge(packetPushedOut, packetPulledOut)))"
attr title "flow specific outgoing packet lengths"
attr unit b
vector 89 TsnLinearNetwork.client.ieee8021q.qTagHeaderInserter flowOutgoingDataRate:vector ETV
attr interpolationmode linear
attr recordingmode vector
attr source "throughput(demuxFlow(merge(packetPushedOut, packetPulledOut)))"
attr title "flow specific outgoing data rate"
attr unit bps
vector 90 TsnLinearNetwork.client.ieee8021q.qTagHeaderChecker incomingPacketLengths:vector ETV
attr interpolationmode none
attr recordingmode vector
attr source "packetLength(merge(packetPushedIn, packetPulledIn))"
attr title "incoming packet lengths"
attr unit b
vector 91 TsnLinearNetwork.client.ieee8021q.qTagHeaderChecker incomingDataRate:vector ETV
attr interpolationmode linear
attr recordingmode vector
attr source "throughput(merge(packetPushedIn, packetPulledIn))"
attr title "incoming data rate"
attr unit bps
vector 92 TsnLinearNetwork.client.ieee8021q.qTagHeaderChecker outgoingPacketLengths:vector ETV
attr interpolationmode none
attr recordingmode vector
attr source "packetLength(merge(packetPushedOut, packetPulledOut))"
attr title "outgoing packet lengths"
attr unit b
vector 93 TsnLinearNetwork.client.ieee8021q.qTagHeaderChecker outgoingDataRate:vector ETV
attr interpolationmode linear
attr recordingmode vector
attr source "throughput(merge(packetPushedOut, packetPulledOut))"
attr title "outgoing data rate"
attr unit bps
vector 94 TsnLinearNetwork.client.ieee8021q.qTagHeaderChecker droppedPacketLengths:vector ETV
attr interpolationmode none
attr recordingmode vector
attr source packetLength(packetDropped)
attr title "dropped packet lengths"
attr unit b
vector 95 TsnLinearNetwork.client.ieee8021q.qTagHeaderChecker droppedDataRate:vector ETV
attr interpolationmode linear
attr recordingmode vector
attr source throughput(packetDropped)
attr title "dropped data rate"
attr unit bps
vector 96 TsnLinearNetwork.client.ieee8021q.qTagHeaderChecker flowIncomingPacketLengths:vector ETV
attr interpolationmode none
attr recordingmode vector
attr source "packetLength(demuxFlow(merge(packetPushedIn, packetPulledIn)))"
attr title "flow specific incoming packet lengths"
attr unit b
vector 97 TsnLinearNetwork.client.ieee8021q.qTagHeaderChecker flowIncomingDataRate:vector ETV
attr interpolationmode linear
attr recordingmode vector
attr source "throughput(demuxFlow(merge(packetPushedIn, packetPulledIn)))"
attr title "flow specific incoming data rate"
attr unit bps
vector 98 TsnLinearNetwork.client.ieee8021q.qTagHeaderChecker flowOutgoingPacketLengths:vector ETV
attr interpolationmode none
attr recordingmode vector
attr source "packetLength(demuxFlow(merge(packetPushedOut, packetPulledOut)))"
attr title "flow specific outgoing packet lengths"
attr unit b
vector 99 TsnLinearNetwork.client.ieee8021q.qTagHeaderChecker flowOutgoingDataRate:vector ETV
attr interpolationmode linear
attr recordingmode vector
attr source "throughput(demuxFlow(merge(packetPushedOut, packetPulledOut)))"
attr title "flow specific outgoing data rate"
attr unit bps
vector 100 TsnLinearNetwork.client.ieee8021q.qTagHeaderChecker flowDroppedPacketLengths:vector ETV
attr interpolationmode none
attr recordingmode vector
attr source packetLength(demuxFlow(packetDropped))
attr title "flow specific dropped packet lengths"
attr unit b
vector 101 TsnLinearNetwork.client.ieee8021q.qTagHeaderChecker flowDroppedDataRate:vector ETV
attr interpolationmode linear
attr recordingmode vector
attr source throughput(demuxFlow(packetDropped))
attr title "flow specific dropped data rate"
attr unit bps
vector 102 TsnLinearNetwork.client.lo[0].lo rcvdPkFromHl:vector(packetBytes) ETV
attr interpolationmode none
attr recordingmode vector(packetBytes)
attr source packetReceivedFromUpper
attr title "packets received from higher layer, packetBytes"
vector 103 TsnLinearNetwork.client.lo[0].lo passedUpPk:vector(packetBytes) ETV
attr interpolationmode none
attr recordingmode vector(packetBytes)
attr source packetSentToUpper
attr title "packets passed to higher layer, packetBytes"
vector 104 TsnLinearNetwork.client.lo[0] packetDropInterfaceDown:vector(packetBytes) ETV
attr interpolationmode none
attr recordingmode vector(packetBytes)
attr source packetDropReasonIsInterfaceDown(packetDropped)
attr title "packet drops: interface down, packetBytes"
vector 105 TsnLinearNetwork.client.lo[0] packetDropNoCarrier:vector(packetBytes) ETV
attr interpolationmode none
attr recordingmode vector(packetBytes)
attr source packetDropReasonIsNoCarrier(packetDropped)
attr title "packet drops: no carrier, packetBytes"
vector 106 TsnLinearNetwork.client.eth[0].macLayer.queue queueLength:vector ETV
attr autoWarmupFilter false
attr interpolationmode sample-hold
attr recordingmode vector
attr source "warmup(atomic(constant0(packetPushEnded) + count(packetPushStarted) - count(packetPulled) - count(packetRemoved) - count(packetDropped)))"
attr title "queue length"
attr unit pk
vector 107 TsnLinearNetwork.client.eth[0].macLayer.queue queueBitLength:vector ETV
attr autoWarmupFilter false
attr interpolationmode sample-hold
attr recordingmode vector
attr source "warmup(atomic(constant0(packetPushEnded) + sum(packetLength(packetPushStarted)) - sum(packetLength(packetPulled)) - sum(packetLength(packetRemoved)) - sum(packetLength(packetDropped))))"
attr title "queue bit length"
attr unit b
vector 108 TsnLinearNetwork.client.eth[0].macLayer.queue queueingTime:vector ETV
attr interpolationmode none
attr recordingmode vector
attr source queueingTime(packetPulled)
attr title "queueing times"
attr unit s
vector 109 TsnLinearNetwork.client.eth[0].macLayer.queue incomingPacketLengths:vector ETV
attr interpolationmode none
attr recordingmode vector
attr source packetLength(packetPushStarted)
attr title "incoming packet lengths"
attr unit b
vector 110 TsnLinearNetwork.client.eth[0].macLayer.queue incomingDataRate:vector ETV
attr interpolationmode linear
attr recordingmode vector
attr source throughput(packetPushStarted)
attr title "incoming datarate"
attr unit bps
vector 111 TsnLinearNetwork.client.eth[0].macLayer.queue outgoingPacketLengths:vector ETV
attr interpolationmode none
attr recordingmode vector
attr source packetLength(packetPulled)
attr title "outgoing packet lengths"
attr unit b
vector 112 TsnLinearNetwork.client.eth[0].macLayer.queue outgoingDataRate:vector ETV
attr interpolationmode linear
attr recordingmode vector
attr source throughput(packetPulled)
attr title "outgoing datarate"
attr unit bps
vector 113 TsnLinearNetwork.client.eth[0].macLayer.queue droppedPacketLengthsQueueOverflow:vector ETV
attr interpolationmode none
attr recordingmode vector
attr source packetLength(packetDropReasonIsQueueOverflow(packetDropped))
attr title "dropped packet lengths: queue overflow"
attr unit b
vector 114 TsnLinearNetwork.client.eth[0].macLayer.queue flowQueueingTime:vector ETV
attr interpolationmode none
attr recordingmode vector
attr source queueingTime(demuxFlow(packetPulled))
attr title "flow queueing times"
attr unit s
vector 115 TsnLinearNetwork.client.eth[0].macLayer.queue flowIncomingDataRate:vector ETV
attr interpolationmode linear
attr recordingmode vector
attr source throughput(flowPacketLength(demuxFlow(packetPushStarted)))
attr title "flow specific incoming data rate"
attr unit bps
vector 116 TsnLinearNetwork.client.eth[0].macLayer.queue flowOutgoingDataRate:vector ETV
attr interpolationmode linear
attr recordingmode vector
attr source throughput(flowPacketLength(demuxFlow(packetPulled)))
attr title "flow specific outgoing data rate"
attr unit bps
vector 117 TsnLinearNetwork.client.eth[0].macLayer.server incomingPacketLengths:vector ETV
attr interpolationmode none
attr recordingmode vector
attr source packetLength(packetPulled)
attr title "incoming packet lengths"
attr unit b
vector 118 TsnLinearNetwork.client.eth[0].macLayer.server incomingDataRate:vector ETV
attr interpolationmode linear
attr recordingmode vector
attr source throughput(packetPulled)
attr title "incoming datarate"
attr unit bps
vector 119 TsnLinearNetwork.client.eth[0].macLayer.server outgoingPacketLengths:vector ETV
attr interpolationmode none
attr recordingmode vector
attr source packetLength(packetPushed)
attr title "outgoing packet lengths"
attr unit b
vector 120 TsnLinearNetwork.client.eth[0].macLayer.server outgoingDataRate:vector ETV
attr interpolationmode linear
attr recordingmode vector
attr source throughput(packetPushed)
attr title "outgoing datarate"
attr unit bps
vector 121 TsnLinearNetwork.client.eth[0].macLayer.outboundEmitter incomingPacketLengths:vector ETV
attr interpolationmode none
attr recordingmode vector
attr source "packetLength(merge(packetPushedIn, packetPulledIn))"
attr title "incoming packet lengths"
attr unit b
vector 122 TsnLinearNetwork.client.eth[0].macLayer.outboundEmitter incomingDataRate:vector ETV
attr interpolationmode linear
attr recordingmode vector
attr source "throughput(merge(packetPushedIn, packetPulledIn))"
attr title "incoming data rate"
attr unit bps
vector 123 TsnLinearNetwork.client.eth[0].macLayer.outboundEmitter outgoingPacketLengths:vector ETV
attr interpolationmode none
attr recordingmode vector
attr source "packetLength(merge(packetPushedOut, packetPulledOut))"
attr title "outgoing packet lengths"
attr unit b
vector 124 TsnLinearNetwork.client.eth[0].macLayer.outboundEmitter outgoingDataRate:vector ETV
attr interpolationmode linear
attr recordingmode vector
attr source "throughput(merge(packetPushedOut, packetPulledOut))"
attr title "outgoing data rate"
attr unit bps
vector 125 TsnLinearNetwork.client.eth[0].macLayer.outboundEmitter flowIncomingPacketLengths:vector ETV
attr interpolationmode none
attr recordingmode vector
attr source "packetLength(demuxFlow(merge(packetPushedIn, packetPulledIn)))"
attr title "flow specific incoming packet lengths"
attr unit b
vector 126 TsnLinearNetwork.client.eth[0].macLayer.outboundEmitter flowIncomingDataRate:vector ETV
attr interpolationmode linear
attr recordingmode vector
attr source "throughput(demuxFlow(merge(packetPushedIn, packetPulledIn)))"
attr title "flow specific incoming data rate"
attr unit bps
vector 127 TsnLinearNetwork.client.eth[0].macLayer.outboundEmitter flowOutgoingPacketLengths:vector ETV
attr interpolationmode none
attr recordingmode vector
attr source "packetLength(demuxFlow(merge(packetPushedOut, packetPulledOut)))"
attr title "flow specific outgoing packet lengths"
attr unit b
vector 128 TsnLinearNetwork.client.eth[0].macLayer.outboundEmitter flowOutgoingDataRate:vector ETV
attr interpolationmode linear
attr recordingmode vector
attr source "throughput(demuxFlow(merge(packetPushedOut, packetPulledOut)))"
attr title "flow specific outgoing data rate"
attr unit bps
vector 129 TsnLinearNetwork.client.eth[0].macLayer.fcsChecker incomingPacketLengths:vector ETV
attr interpolationmode none
attr recordingmode vector
attr source "packetLength(merge(packetPushedIn, packetPulledIn))"
attr title "incoming packet lengths"
attr unit b
vector 130 TsnLinearNetwork.client.eth[0].macLayer.fcsChecker incomingDataRate:vector ETV
attr interpolationmode linear
attr recordingmode vector
attr source "throughput(merge(packetPushedIn, packetPulledIn))"
attr title "incoming data rate"
attr unit bps
vector 131 TsnLinearNetwork.client.eth[0].macLayer.fcsChecker outgoingPacketLengths:vector ETV
attr interpolationmode none
attr recordingmode vector
attr source "packetLength(merge(packetPushedOut, packetPulledOut))"
attr title "outgoing packet lengths"
attr unit b
vector 132 TsnLinearNetwork.client.eth[0].macLayer.fcsChecker outgoingDataRate:vector ETV
attr interpolationmode linear
attr recordingmode vector
attr source "throughput(merge(packetPushedOut, packetPulledOut))"
attr title "outgoing data rate"
attr unit bps
vector 133 TsnLinearNetwork.client.eth[0].macLayer.fcsChecker droppedPacketLengths:vector ETV
attr interpolationmode none
attr recordingmode vector
attr source packetLength(packetDropped)
attr title "dropped packet lengths"
attr unit b
vector 134 TsnLinearNetwork.client.eth[0].macLayer.fcsChecker droppedDataRate:vector ETV
attr interpolationmode linear
attr recordingmode vector
attr source throughput(packetDropped)
attr title "dropped data rate"
attr unit bps
vector 135 TsnLinearNetwork.client.eth[0].macLayer.fcsChecker flowIncomingPacketLengths:vector ETV
attr interpolationmode none
attr recordingmode vector
attr source "packetLength(demuxFlow(merge(packetPushedIn, packetPulledIn)))"
attr title "flow specific incoming packet lengths"
attr unit b
vector 136 TsnLinearNetwork.client.eth[0].macLayer.fcsChecker flowIncomingDataRate:vector ETV
attr interpolationmode linear
attr recordingmode vector
attr source "throughput(demuxFlow(merge(packetPushedIn, packetPulledIn)))"
attr title "flow specific incoming data rate"
attr unit bps
vector 137 TsnLinearNetwork.client.eth[0].macLayer.fcsChecker flowOutgoingPacketLengths:vector ETV
attr interpolationmode none
attr recordingmode vector
attr source "packetLength(demuxFlow(merge(packetPushedOut, packetPulledOut)))"
attr title "flow specific outgoing packet lengths"
attr unit b
vector 138 TsnLinearNetwork.client.eth[0].macLayer.fcsChecker flowOutgoingDataRate:vector ETV
attr interpolationmode linear
attr recordingmode vector
attr source "throughput(demuxFlow(merge(packetPushedOut, packetPulledOut)))"
attr title "flow specific outgoing data rate"
attr unit bps
vector 139 TsnLinearNetwork.client.eth[0].macLayer.fcsChecker flowDroppedPacketLengths:vector ETV
attr interpolationmode none
attr recordingmode vector
attr source packetLength(demuxFlow(packetDropped))
attr title "flow specific dropped packet lengths"
attr unit b
vector 140 TsnLinearNetwork.client.eth[0].macLayer.fcsChecker flowDroppedDataRate:vector ETV
attr interpolationmode linear
attr recordingmode vector
attr source throughput(demuxFlow(packetDropped))
attr title "flow specific dropped data rate"
attr unit bps
vector 141 TsnLinearNetwork.client.eth[0].macLayer.inboundEmitter incomingPacketLengths:vector ETV
attr interpolationmode none
attr recordingmode vector
attr source "packetLength(merge(packetPushedIn, packetPulledIn))"
attr title "incoming packet lengths"
attr unit b
vector 142 TsnLinearNetwork.client.eth[0].macLayer.inboundEmitter incomingDataRate:vector ETV
attr interpolationmode linear
attr recordingmode vector
attr source "throughput(merge(packetPushedIn, packetPulledIn))"
attr title "incoming data rate"
attr unit bps
vector 143 TsnLinearNetwork.client.eth[0].macLayer.inboundEmitter outgoingPacketLengths:vector ETV
attr interpolationmode none
attr recordingmode vector
attr source "packetLength(merge(packetPushedOut, packetPulledOut))"
attr title "outgoing packet lengths"
attr unit b
vector 144 TsnLinearNetwork.client.eth[0].macLayer.inboundEmitter outgoingDataRate:vector ETV
attr interpolationmode linear
attr recordingmode vector
attr source "throughput(merge(packetPushedOut, packetPulledOut))"
attr title "outgoing data rate"
attr unit bps
vector 145 TsnLinearNetwork.client.eth[0].macLayer.inboundEmitter flowIncomingPacketLengths:vector ETV
attr interpolationmode none
attr recordingmode vector
attr source "packetLength(demuxFlow(merge(packetPushedIn, packetPulledIn)))"
attr title "flow specific incoming packet lengths"
attr unit b
vector 146 TsnLinearNetwork.client.eth[0].macLayer.inboundEmitter flowIncomingDataRate:vector ETV
attr interpolationmode linear
attr recordingmode vector
attr source "throughput(demuxFlow(merge(packetPushedIn, packetPulledIn)))"
attr title "flow specific incoming data rate"
attr unit bps
vector 147 TsnLinearNetwork.client.eth[0].macLayer.inboundEmitter flowOutgoingPacketLengths:vector ETV
attr interpolationmode none
attr recordingmode vector
attr source "packetLength(demuxFlow(merge(packetPushedOut, packetPulledOut)))"
attr title "flow specific outgoing packet lengths"
attr unit b
vector 148 TsnLinearNetwork.client.eth[0].macLayer.inboundEmitter flowOutgoingDataRate:vector ETV
attr interpolationmode linear
attr recordingmode vector
attr source "throughput(demuxFlow(merge(packetPushedOut, packetPulledOut)))"
attr title "flow specific outgoing data rate"
attr unit bps
vector 149 TsnLinearNetwork.client.eth[0].phyLayer.phyHeaderInserter incomingPacketLengths:vector ETV
attr interpolationmode none
attr recordingmode vector
attr source "packetLength(merge(packetPushedIn, packetPulledIn))"
attr title "incoming packet lengths"
attr unit b
vector 150 TsnLinearNetwork.client.eth[0].phyLayer.phyHeaderInserter incomingDataRate:vector ETV
attr interpolationmode linear
attr recordingmode vector
attr source "throughput(merge(packetPushedIn, packetPulledIn))"
attr title "incoming data rate"
attr unit bps
vector 151 TsnLinearNetwork.client.eth[0].phyLayer.phyHeaderInserter outgoingPacketLengths:vector ETV
attr interpolationmode none
attr recordingmode vector
attr source "packetLength(merge(packetPushedOut, packetPulledOut))"
attr title "outgoing packet lengths"
attr unit b
vector 152 TsnLinearNetwork.client.eth[0].phyLayer.phyHeaderInserter outgoingDataRate:vector ETV
attr interpolationmode linear
attr recordingmode vector
attr source "throughput(merge(packetPushedOut, packetPulledOut))"
attr title "outgoing data rate"
attr unit bps
vector 153 TsnLinearNetwork.client.eth[0].phyLayer.phyHeaderInserter flowIncomingPacketLengths:vector ETV
attr interpolationmode none
attr recordingmode vector
attr source "packetLength(demuxFlow(merge(packetPushedIn, packetPulledIn)))"
attr title "flow specific incoming packet lengths"
attr unit b
vector 154 TsnLinearNetwork.client.eth[0].phyLayer.phyHeaderInserter flowIncomingDataRate:vector ETV
attr interpolationmode linear
attr recordingmode vector
attr source "throughput(demuxFlow(merge(packetPushedIn, packetPulledIn)))"
attr title "flow specific incoming data rate"
attr unit bps
vector 155 TsnLinearNetwork.client.eth[0].phyLayer.phyHeaderInserter flowOutgoingPacketLengths:vector ETV
attr interpolationmode none
attr recordingmode vector
attr source "packetLength(demuxFlow(merge(packetPushedOut, packetPulledOut)))"
attr title "flow specific outgoing packet lengths"
attr unit b
vector 156 TsnLinearNetwork.client.eth[0].phyLayer.phyHeaderInserter flowOutgoingDataRate:vector ETV
attr interpolationmode linear
attr recordingmode vector
attr source "throughput(demuxFlow(merge(packetPushedOut, packetPulledOut)))"
attr title "flow specific outgoing data rate"
attr unit bps
vector 157 TsnLinearNetwork.client.eth[0].phyLayer.interFrameGapInserter interpacketGap:vector ETV
attr interpolationmode sample-hold
attr recordingmode vector
attr source "count(interpacketGapStarted) - count(interpacketGapEnded)"
attr title "interpacket gap state"
attr type int
vector 158 TsnLinearNetwork.client.eth[0].phyLayer.outboundEmitter incomingPacketLengths:vector ETV
attr interpolationmode none
attr recordingmode vector
attr source "packetLength(merge(packetPushedIn, packetPulledIn))"
attr title "incoming packet lengths"
attr unit b
vector 159 TsnLinearNetwork.client.eth[0].phyLayer.outboundEmitter incomingDataRate:vector ETV
attr interpolationmode linear
attr recordingmode vector
attr source "throughput(merge(packetPushedIn, packetPulledIn))"
attr title "incoming data rate"
attr unit bps
vector 160 TsnLinearNetwork.client.eth[0].phyLayer.outboundEmitter outgoingPacketLengths:vector ETV
attr interpolationmode none
attr recordingmode vector
attr source "packetLength(merge(packetPushedOut, packetPulledOut))"
attr title "outgoing packet lengths"
attr unit b
vector 161 TsnLinearNetwork.client.eth[0].phyLayer.outboundEmitter outgoingDataRate:vector ETV
attr interpolationmode linear
attr recordingmode vector
attr source "throughput(merge(packetPushedOut, packetPulledOut))"
attr title "outgoing data rate"
attr unit bps
vector 162 TsnLinearNetwork.client.eth[0].phyLayer.outboundEmitter flowIncomingPacketLengths:vector ETV
attr interpolationmode none
attr recordingmode vector
attr source "packetLength(demuxFlow(merge(packetPushedIn, packetPulledIn)))"
attr title "flow specific incoming packet lengths"
attr unit b
vector 163 TsnLinearNetwork.client.eth[0].phyLayer.outboundEmitter flowIncomingDataRate:vector ETV
attr interpolationmode linear
attr recordingmode vector
attr source "throughput(demuxFlow(merge(packetPushedIn, packetPulledIn)))"
attr title "flow specific incoming data rate"
attr unit bps
vector 164 TsnLinearNetwork.client.eth[0].phyLayer.outboundEmitter flowOutgoingPacketLengths:vector ETV
attr interpolationmode none
attr recordingmode vector
attr source "packetLength(demuxFlow(merge(packetPushedOut, packetPulledOut)))"
attr title "flow specific outgoing packet lengths"
attr unit b
vector 165 TsnLinearNetwork.client.eth[0].phyLayer.outboundEmitter flowOutgoingDataRate:vector ETV
attr interpolationmode linear
attr recordingmode vector
attr source "throughput(demuxFlow(merge(packetPushedOut, packetPulledOut)))"
attr title "flow specific outgoing data rate"
attr unit bps
vector 166 TsnLinearNetwork.client.eth[0].phyLayer.transmitter transmitting:vector ETV
attr interpolationmode sample-hold
attr recordingmode vector
attr source "count(transmissionStarted) - count(transmissionEnded)"
attr title "transmitting state"
attr type int
vector 167 TsnLinearNetwork.client.eth[0].phyLayer.transmitter throughput:vector ETV
attr interpolationmode linear
attr recordingmode vector
attr source throughput(transmissionEnded)
attr title throughput
attr unit bps
vector 168 TsnLinearNetwork.client.eth[0].phyLayer.transmitter utilization:vector ETV
attr interpolationmode linear
attr recordingmode vector
attr source "100 * utilization(count(transmissionStarted) - count(transmissionEnded))"
attr title utilization
attr unit %
vector 169 TsnLinearNetwork.client.eth[0].phyLayer.transmitter transmissionTime:vector ETV
attr interpolationmode none
attr recordingmode vector
attr source packetDuration(transmissionEnded)
attr title "transmission time"
attr unit s
vector 170 TsnLinearNetwork.client.eth[0].phyLayer.transmitter flowTransmissionTime:vector ETV
attr interpolationmode none
attr recordingmode vector
attr source packetDuration(demuxFlow(transmissionEnded))
attr title "flow transmission time"
attr unit s
vector 171 TsnLinearNetwork.client.eth[0].phyLayer.phyHeaderChecker incomingPacketLengths:vector ETV
attr interpolationmode none
attr recordingmode vector
attr source "packetLength(merge(packetPushedIn, packetPulledIn))"
attr title "incoming packet lengths"
attr unit b
vector 172 TsnLinearNetwork.client.eth[0].phyLayer.phyHeaderChecker incomingDataRate:vector ETV
attr interpolationmode linear
attr recordingmode vector
attr source "throughput(merge(packetPushedIn, packetPulledIn))"
attr title "incoming data rate"
attr unit bps
vector 173 TsnLinearNetwork.client.eth[0].phyLayer.phyHeaderChecker outgoingPacketLengths:vector ETV
attr interpolationmode none
attr recordingmode vector
attr source "packetLength(merge(packetPushedOut, packetPulledOut))"
attr title "outgoing packet lengths"
attr unit b
vector 174 TsnLinearNetwork.client.eth[0].phyLayer.phyHeaderChecker outgoingDataRate:vector ETV
attr interpolationmode linear
attr recordingmode vector
attr source "throughput(merge(packetPushedOut, packetPulledOut))"
attr title "outgoing data rate"
attr unit bps
vector 175 TsnLinearNetwork.client.eth[0].phyLayer.phyHeaderChecker droppedPacketLengths:vector ETV
attr interpolationmode none
attr recordingmode vector
attr source packetLength(packetDropped)
attr title "dropped packet lengths"
attr unit b
vector 176 TsnLinearNetwork.client.eth[0].phyLayer.phyHeaderChecker droppedDataRate:vector ETV
attr interpolationmode linear
attr recordingmode vector
attr source throughput(packetDropped)
attr title "dropped data rate"
attr unit bps
vector 177 TsnLinearNetwork.client.eth[0].phyLayer.phyHeaderChecker flowIncomingPacketLengths:vector ETV
attr interpolationmode none
attr recordingmode vector
attr source "packetLength(demuxFlow(merge(packetPushedIn, packetPulledIn)))"
attr title "flow specific incoming packet lengths"
attr unit b
vector 178 TsnLinearNetwork.client.eth[0].phyLayer.phyHeaderChecker flowIncomingDataRate:vector ETV
attr interpolationmode linear
attr recordingmode vector
attr source "throughput(demuxFlow(merge(packetPushedIn, packetPulledIn)))"
attr title "flow specific incoming data rate"
attr unit bps
vector 179 TsnLinearNetwork.client.eth[0].phyLayer.phyHeaderChecker flowOutgoingPacketLengths:vector ETV
attr interpolationmode none
attr recordingmode vector
attr source "packetLength(demuxFlow(merge(packetPushedOut, packetPulledOut)))"
attr title "flow specific outgoing packet lengths"
attr unit b
vector 180 TsnLinearNetwork.client.eth[0].phyLayer.phyHeaderChecker flowOutgoingDataRate:vector ETV
attr interpolationmode linear
attr recordingmode vector
attr source "throughput(demuxFlow(merge(packetPushedOut, packetPulledOut)))"
attr title "flow specific outgoing data rate"
attr unit bps
vector 181 TsnLinearNetwork.client.eth[0].phyLayer.phyHeaderChecker flowDroppedPacketLengths:vector ETV
attr interpolationmode none
attr recordingmode vector
attr source packetLength(demuxFlow(packetDropped))
attr title "flow specific dropped packet lengths"
attr unit b
vector 182 TsnLinearNetwork.client.eth[0].phyLayer.phyHeaderChecker flowDroppedDataRate:vector ETV
attr interpolationmode linear
attr recordingmode vector
attr source throughput(demuxFlow(packetDropped))
attr title "flow specific dropped data rate"
attr unit bps
vector 183 TsnLinearNetwork.client.eth[0].phyLayer.inboundEmitter incomingPacketLengths:vector ETV
attr interpolationmode none
attr recordingmode vector
attr source "packetLength(merge(packetPushedIn, packetPulledIn))"
attr title "incoming packet lengths"
attr unit b
vector 184 TsnLinearNetwork.client.eth[0].phyLayer.inboundEmitter incomingDataRate:vector ETV
attr interpolationmode linear
attr recordingmode vector
attr source "throughput(merge(packetPushedIn, packetPulledIn))"
attr title "incoming data rate"
attr unit bps
vector 185 TsnLinearNetwork.client.eth[0].phyLayer.inboundEmitter outgoingPacketLengths:vector ETV
attr interpolationmode none
attr recordingmode vector
attr source "packetLength(merge(packetPushedOut, packetPulledOut))"
attr title "outgoing packet lengths"
attr unit b
vector 186 TsnLinearNetwork.client.eth[0].phyLayer.inboundEmitter outgoingDataRate:vector ETV
attr interpolationmode linear
attr recordingmode vector
attr source "throughput(merge(packetPushedOut, packetPulledOut))"
attr title "outgoing data rate"
attr unit bps
vector 187 TsnLinearNetwork.client.eth[0].phyLayer.inboundEmitter flowIncomingPacketLengths:vector ETV
attr interpolationmode none
attr recordingmode vector
attr source "packetLength(demuxFlow(merge(packetPushedIn, packetPulledIn)))"
attr title "flow specific incoming packet lengths"
attr unit b
vector 188 TsnLinearNetwork.client.eth[0].phyLayer.inboundEmitter flowIncomingDataRate:vector ETV
attr interpolationmode linear
attr recordingmode vector
attr source "throughput(demuxFlow(merge(packetPushedIn, packetPulledIn)))"
attr title "flow specific incoming data rate"
attr unit bps
vector 189 TsnLinearNetwork.client.eth[0].phyLayer.inboundEmitter flowOutgoingPacketLengths:vector ETV
attr interpolationmode none
attr recordingmode vector
attr source "packetLength(demuxFlow(merge(packetPushedOut, packetPulledOut)))"
attr title "flow specific outgoing packet lengths"
attr unit b
vector 190 TsnLinearNetwork.client.eth[0].phyLayer.inboundEmitter flowOutgoingDataRate:vector ETV
attr interpolationmode linear
attr recordingmode vector
attr source "throughput(demuxFlow(merge(packetPushedOut, packetPulledOut)))"
attr title "flow specific outgoing data rate"
attr unit bps
vector 191 TsnLinearNetwork.client.eth[0].phyLayer.receiver throughput:vector ETV
attr interpolationmode linear
attr recordingmode vector
attr source throughput(receptionEnded)
attr title throughput
attr unit bps
vector 192 TsnLinearNetwork.client.eth[0].phyLayer.receiver receptionTime:vector ETV
attr interpolationmode none
attr recordingmode vector
attr source packetDuration(receptionEnded)
attr title "reception time"
attr unit s
vector 193 TsnLinearNetwork.client.eth[0].phyLayer.receiver flowReceptionTime:vector ETV
attr interpolationmode none
attr recordingmode vector
attr source packetDuration(demuxFlow(receptionEnded))
attr title "flow reception time"
attr unit s
vector 194 TsnLinearNetwork.client.eth[0] packetDropInterfaceDown:vector(packetBytes) ETV
attr interpolationmode none
attr recordingmode vector(packetBytes)
attr source packetDropReasonIsInterfaceDown(packetDropped)
attr title "packet drops: interface down, packetBytes"
vector 195 TsnLinearNetwork.client.eth[0] packetDropNoCarrier:vector(packetBytes) ETV
attr interpolationmode none
attr recordingmode vector(packetBytes)
attr source packetDropReasonIsNoCarrier(packetDropped)
attr title "packet drops: no carrier, packetBytes"
vector 196 TsnLinearNetwork.client.ipv4.ip packetDropAddressResolutionFailed:vector(packetBytes) ETV
attr interpolationmode none
attr recordingmode vector(packetBytes)
attr source packetDropReasonIsAddressResolutionFailed(packetDropped)
attr title "packet drop: address resolution failed, packetBytes"
vector 197 TsnLinearNetwork.client.ipv4.ip packetDropHopLimitReached:vector(packetBytes) ETV
attr interpolationmode none
attr recordingmode vector(packetBytes)
attr source packetDropReasonIsHopLimitReached(packetDropped)
attr title "packet drop: hop limit reached, packetBytes"
vector 198 TsnLinearNetwork.client.ipv4.ip packetDropForwardingDisabled:vector(packetBytes) ETV
attr interpolationmode none
attr recordingmode vector(packetBytes)
attr source packetDropReasonIsForwardingDisabled(packetDropped)
attr title "packet drop: forwarding disabled, packetBytes"
vector 199 TsnLinearNetwork.client.ipv4.ip packetDropNoInterfaceFound:vector(packetBytes) ETV
attr interpolationmode none
attr recordingmode vector(packetBytes)
attr source packetDropReasonIsNoInterfaceFound(packetDropped)
attr title "packet drop: no interface found, packetBytes"
vector 200 TsnLinearNetwork.client.ipv4.ip packetDropNoRouteFound:vector(packetBytes) ETV
attr interpolationmode none
attr recordingmode vector(packetBytes)
attr source packetDropReasonIsNoRouteFound(packetDropped)
attr title "packet drop: no route found, packetBytes"
vector 201 TsnLinearNetwork.client.ipv4.ip packetDropUndefined:vector(packetBytes) ETV
attr interpolationmode none
attr recordingmode vector(packetBytes)
attr source packetDropReasonIsUndefined(packetDropped)
attr title "packet drop: undefined, packetBytes"
vector 202 TsnLinearNetwork.client.udp packetSent:vector(packetBytes) ETV
attr interpolationmode none
attr recordingmode vector(packetBytes)
attr source packetSent
attr title "packets sent, packetBytes"
vector 203 TsnLinearNetwork.client.udp packetReceived:vector(packetBytes) ETV
attr interpolationmode none
attr recordingmode vector(packetBytes)
attr source packetReceived
attr title "packets received, packetBytes"
vector 204 TsnLinearNetwork.client.udp passedUpPk:vector(count) ETV
attr interpolationmode none
attr recordingmode vector(count)
attr source packetSentToUpper
attr title "packets passed up, count"
vector 205 TsnLinearNetwork.client.udp droppedPkWrongPort:vector(count) ETV
attr interpolationmode none
attr recordingmode vector(count)
attr source packetDropReasonIsNoPortFound(packetDropped)
attr title "packets dropped (wrong port), count"
vector 206 TsnLinearNetwork.client.udp droppedPkBadChecksum:vector(count) ETV
attr interpolationmode none
attr recordingmode vector(count)
attr source packetDropReasonIsIncorrectlyReceived(packetDropped)
attr title "packets dropped (checksum error), count"
vector 207 TsnLinearNetwork.client.app[0].source packetLengths:vector ETV
attr interpolationmode none
attr moduledisplaypath "TsnLinearNetwork.client.speed/torque command.source"
attr recordingmode vector
attr source packetLength(packetPushed)
attr title "packet lengths"
attr unit b
vector 208 TsnLinearNetwork.client.app[0].source dataRate:vector ETV
attr interpolationmode linear
attr moduledisplaypath "TsnLinearNetwork.client.speed/torque command.source"
attr recordingmode vector
attr source throughput(packetPushed)
attr title "data rate"
attr unit bps
vector 209 TsnLinearNetwork.client.app[0].io packetSent:vector(packetBytes) ETV
attr interpolationmode none
attr moduledisplaypath "TsnLinearNetwork.client.speed/torque command.io"
attr recordingmode vector(packetBytes)
attr source packetSent
attr title "packets sent, packetBytes"
vector 210 TsnLinearNetwork.client.app[0].io packetReceived:vector(packetBytes) ETV
attr interpolationmode none
attr moduledisplaypath "TsnLinearNetwork.client.speed/torque command.io"
attr recordingmode vector(packetBytes)
attr source packetReceived
attr title "packets received, packetBytes"
vector 211 TsnLinearNetwork.client.app[1].source packetLengths:vector ETV
attr interpolationmode none
attr moduledisplaypath "TsnLinearNetwork.client.brake command.source"
attr recordingmode vector
attr source packetLength(packetPushed)
attr title "packet lengths"
attr unit b
vector 212 TsnLinearNetwork.client.app[1].source dataRate:vector ETV
attr interpolationmode linear
attr moduledisplaypath "TsnLinearNetwork.client.brake command.source"
attr recordingmode vector
attr source throughput(packetPushed)
attr title "data rate"
attr unit bps
vector 213 TsnLinearNetwork.client.app[1].io packetSent:vector(packetBytes) ETV
attr interpolationmode none
attr moduledisplaypath "TsnLinearNetwork.client.brake command.io"
attr recordingmode vector(packetBytes)
attr source packetSent
attr title "packets sent, packetBytes"
vector 214 TsnLinearNetwork.client.app[1].io packetReceived:vector(packetBytes) ETV
attr interpolationmode none
attr moduledisplaypath "TsnLinearNetwork.client.brake command.io"
attr recordingmode vector(packetBytes)
attr source packetReceived
attr title "packets received, packetBytes"
vector 215 TsnLinearNetwork.switch.bridging.directionReverser.reverser incomingPacketLengths:vector ETV
attr interpolationmode none
attr recordingmode vector
attr source "packetLength(merge(packetPushedIn, packetPulledIn))"
attr title "incoming packet lengths"
attr unit b
vector 216 TsnLinearNetwork.switch.bridging.directionReverser.reverser incomingDataRate:vector ETV
attr interpolationmode linear
attr recordingmode vector
attr source "throughput(merge(packetPushedIn, packetPulledIn))"
attr title "incoming data rate"
attr unit bps
vector 217 TsnLinearNetwork.switch.bridging.directionReverser.reverser outgoingPacketLengths:vector ETV
attr interpolationmode none
attr recordingmode vector
attr source "packetLength(merge(packetPushedOut, packetPulledOut))"
attr title "outgoing packet lengths"
attr unit b
vector 218 TsnLinearNetwork.switch.bridging.directionReverser.reverser outgoingDataRate:vector ETV
attr interpolationmode linear
attr recordingmode vector
attr source "throughput(merge(packetPushedOut, packetPulledOut))"
attr title "outgoing data rate"
attr unit bps
vector 219 TsnLinearNetwork.switch.bridging.directionReverser.reverser flowIncomingPacketLengths:vector ETV
attr interpolationmode none
attr recordingmode vector
attr source "packetLength(demuxFlow(merge(packetPushedIn, packetPulledIn)))"
attr title "flow specific incoming packet lengths"
attr unit b
vector 220 TsnLinearNetwork.switch.bridging.directionReverser.reverser flowIncomingDataRate:vector ETV
attr interpolationmode linear
attr recordingmode vector
attr source "throughput(demuxFlow(merge(packetPushedIn, packetPulledIn)))"
attr title "flow specific incoming data rate"
attr unit bps
vector 221 TsnLinearNetwork.switch.bridging.directionReverser.reverser flowOutgoingPacketLengths:vector ETV
attr interpolationmode none
attr recordingmode vector
attr source "packetLength(demuxFlow(merge(packetPushedOut, packetPulledOut)))"
attr title "flow specific outgoing packet lengths"
attr unit b
vector 222 TsnLinearNetwork.switch.bridging.directionReverser.reverser flowOutgoingDataRate:vector ETV
attr interpolationmode linear
attr recordingmode vector
attr source "throughput(demuxFlow(merge(packetPushedOut, packetPulledOut)))"
attr title "flow specific outgoing data rate"
attr unit bps
vector 223 TsnLinearNetwork.switch.bridging.directionReverser.join packetLengths:vector ETV
attr interpolationmode none
attr recordingmode vector
attr source "packetLength(merge(packetPushed, packetPulled))"
attr title "packet lengths"
attr unit b
vector 224 TsnLinearNetwork.switch.bridging.directionReverser.join dataRate:vector ETV
attr interpolationmode linear
attr recordingmode vector
attr source "throughput(merge(packetPushed, packetPulled))"
attr title "data rate"
attr unit bps
vector 225 TsnLinearNetwork.switch.bridging.interfaceRelay.learner incomingPacketLengths:vector ETV
attr interpolationmode none
attr recordingmode vector
attr source "packetLength(merge(packetPushedIn, packetPulledIn))"
attr title "incoming packet lengths"
attr unit b
vector 226 TsnLinearNetwork.switch.bridging.interfaceRelay.learner incomingDataRate:vector ETV
attr interpolationmode linear
attr recordingmode vector
attr source "throughput(merge(packetPushedIn, packetPulledIn))"
attr title "incoming data rate"
attr unit bps
vector 227 TsnLinearNetwork.switch.bridging.interfaceRelay.learner outgoingPacketLengths:vector ETV
attr interpolationmode none
attr recordingmode vector
attr source "packetLength(merge(packetPushedOut, packetPulledOut))"
attr title "outgoing packet lengths"
attr unit b
vector 228 TsnLinearNetwork.switch.bridging.interfaceRelay.learner outgoingDataRate:vector ETV
attr interpolationmode linear
attr recordingmode vector
attr source "throughput(merge(packetPushedOut, packetPulledOut))"
attr title "outgoing data rate"
attr unit bps
vector 229 TsnLinearNetwork.switch.bridging.interfaceRelay.learner flowIncomingPacketLengths:vector ETV
attr interpolationmode none
attr recordingmode vector
attr source "packetLength(demuxFlow(merge(packetPushedIn, packetPulledIn)))"
attr title "flow specific incoming packet lengths"
attr unit b
vector 230 TsnLinearNetwork.switch.bridging.interfaceRelay.learner flowIncomingDataRate:vector ETV
attr interpolationmode linear
attr recordingmode vector
attr source "throughput(demuxFlow(merge(packetPushedIn, packetPulledIn)))"
attr title "flow specific incoming data rate"
attr unit bps
vector 231 TsnLinearNetwork.switch.bridging.interfaceRelay.learner flowOutgoingPacketLengths:vector ETV
attr interpolationmode none
attr recordingmode vector
attr source "packetLength(demuxFlow(merge(packetPushedOut, packetPulledOut)))"
attr title "flow specific outgoing packet lengths"
attr unit b
vector 232 TsnLinearNetwork.switch.bridging.interfaceRelay.learner flowOutgoingDataRate:vector ETV
attr interpolationmode linear
attr recordingmode vector
attr source "throughput(demuxFlow(merge(packetPushedOut, packetPulledOut)))"
attr title "flow specific outgoing data rate"
attr unit bps
vector 233 TsnLinearNetwork.switch.bridging.interfaceRelay.selector packetDropped:vector(packetBytes) ETV
attr interpolationmode none
attr recordingmode vector(packetBytes)
attr title "packets dropped, packetBytes"
vector 234 TsnLinearNetwork.switch.ethernet.macHeaderInserter incomingPacketLengths:vector ETV
attr interpolationmode none
attr recordingmode vector
attr source "packetLength(merge(packetPushedIn, packetPulledIn))"
attr title "incoming packet lengths"
attr unit b
vector 235 TsnLinearNetwork.switch.ethernet.macHeaderInserter incomingDataRate:vector ETV
attr interpolationmode linear
attr recordingmode vector
attr source "throughput(merge(packetPushedIn, packetPulledIn))"
attr title "incoming data rate"
attr unit bps
vector 236 TsnLinearNetwork.switch.ethernet.macHeaderInserter outgoingPacketLengths:vector ETV
attr interpolationmode none
attr recordingmode vector
attr source "packetLength(merge(packetPushedOut, packetPulledOut))"
attr title "outgoing packet lengths"
attr unit b
vector 237 TsnLinearNetwork.switch.ethernet.macHeaderInserter outgoingDataRate:vector ETV
attr interpolationmode linear
attr recordingmode vector
attr source "throughput(merge(packetPushedOut, packetPulledOut))"
attr title "outgoing data rate"
attr unit bps
vector 238 TsnLinearNetwork.switch.ethernet.macHeaderInserter flowIncomingPacketLengths:vector ETV
attr interpolationmode none
attr recordingmode vector
attr source "packetLength(demuxFlow(merge(packetPushedIn, packetPulledIn)))"
attr title "flow specific incoming packet lengths"
attr unit b
vector 239 TsnLinearNetwork.switch.ethernet.macHeaderInserter flowIncomingDataRate:vector ETV
attr interpolationmode linear
attr recordingmode vector
attr source "throughput(demuxFlow(merge(packetPushedIn, packetPulledIn)))"
attr title "flow specific incoming data rate"
attr unit bps
vector 240 TsnLinearNetwork.switch.ethernet.macHeaderInserter flowOutgoingPacketLengths:vector ETV
attr interpolationmode none
attr recordingmode vector
attr source "packetLength(demuxFlow(merge(packetPushedOut, packetPulledOut)))"
attr title "flow specific outgoing packet lengths"
attr unit b
vector 241 TsnLinearNetwork.switch.ethernet.macHeaderInserter flowOutgoingDataRate:vector ETV
attr interpolationmode linear
attr recordingmode vector
attr source "throughput(demuxFlow(merge(packetPushedOut, packetPulledOut)))"
attr title "flow specific outgoing data rate"
attr unit bps
vector 242 TsnLinearNetwork.switch.ethernet.paddingInserter incomingPacketLengths:vector ETV
attr interpolationmode none
attr recordingmode vector
attr source "packetLength(merge(packetPushedIn, packetPulledIn))"
attr title "incoming packet lengths"
attr unit b
vector 243 TsnLinearNetwork.switch.ethernet.paddingInserter incomingDataRate:vector ETV
attr interpolationmode linear
attr recordingmode vector
attr source "throughput(merge(packetPushedIn, packetPulledIn))"
attr title "incoming data rate"
attr unit bps
vector 244 TsnLinearNetwork.switch.ethernet.paddingInserter outgoingPacketLengths:vector ETV
attr interpolationmode none
attr recordingmode vector
attr source "packetLength(merge(packetPushedOut, packetPulledOut))"
attr title "outgoing packet lengths"
attr unit b
vector 245 TsnLinearNetwork.switch.ethernet.paddingInserter outgoingDataRate:vector ETV
attr interpolationmode linear
attr recordingmode vector
attr source "throughput(merge(packetPushedOut, packetPulledOut))"
attr title "outgoing data rate"
attr unit bps
vector 246 TsnLinearNetwork.switch.ethernet.paddingInserter flowIncomingPacketLengths:vector ETV
attr interpolationmode none
attr recordingmode vector
attr source "packetLength(demuxFlow(merge(packetPushedIn, packetPulledIn)))"
attr title "flow specific incoming packet lengths"
attr unit b
vector 247 TsnLinearNetwork.switch.ethernet.paddingInserter flowIncomingDataRate:vector ETV
attr interpolationmode linear
attr recordingmode vector
attr source "throughput(demuxFlow(merge(packetPushedIn, packetPulledIn)))"
attr title "flow specific incoming data rate"
attr unit bps
vector 248 TsnLinearNetwork.switch.ethernet.paddingInserter flowOutgoingPacketLengths:vector ETV
attr interpolationmode none
attr recordingmode vector
attr source "packetLength(demuxFlow(merge(packetPushedOut, packetPulledOut)))"
attr title "flow specific outgoing packet lengths"
attr unit b
vector 249 TsnLinearNetwork.switch.ethernet.paddingInserter flowOutgoingDataRate:vector ETV
attr interpolationmode linear
attr recordingmode vector
attr source "throughput(demuxFlow(merge(packetPushedOut, packetPulledOut)))"
attr title "flow specific outgoing data rate"
attr unit bps
vector 250 TsnLinearNetwork.switch.ethernet.fcsInserter incomingPacketLengths:vector ETV
attr interpolationmode none
attr recordingmode vector
attr source "packetLength(merge(packetPushedIn, packetPulledIn))"
attr title "incoming packet lengths"
attr unit b
vector 251 TsnLinearNetwork.switch.ethernet.fcsInserter incomingDataRate:vector ETV
attr interpolationmode linear
attr recordingmode vector
attr source "throughput(merge(packetPushedIn, packetPulledIn))"
attr title "incoming data rate"
attr unit bps
vector 252 TsnLinearNetwork.switch.ethernet.fcsInserter outgoingPacketLengths:vector ETV
attr interpolationmode none
attr recordingmode vector
attr source "packetLength(merge(packetPushedOut, packetPulledOut))"
attr title "outgoing packet lengths"
attr unit b
vector 253 TsnLinearNetwork.switch.ethernet.fcsInserter outgoingDataRate:vector ETV
attr interpolationmode linear
attr recordingmode vector
attr source "throughput(merge(packetPushedOut, packetPulledOut))"
attr title "outgoing data rate"
attr unit bps
vector 254 TsnLinearNetwork.switch.ethernet.fcsInserter flowIncomingPacketLengths:vector ETV
attr interpolationmode none
attr recordingmode vector
attr source "packetLength(demuxFlow(merge(packetPushedIn, packetPulledIn)))"
attr title "flow specific incoming packet lengths"
attr unit b
vector 255 TsnLinearNetwork.switch.ethernet.fcsInserter flowIncomingDataRate:vector ETV
attr interpolationmode linear
attr recordingmode vector
attr source "throughput(demuxFlow(merge(packetPushedIn, packetPulledIn)))"
attr title "flow specific incoming data rate"
attr unit bps
vector 256 TsnLinearNetwork.switch.ethernet.fcsInserter flowOutgoingPacketLengths:vector ETV
attr interpolationmode none
attr recordingmode vector
attr source "packetLength(demuxFlow(merge(packetPushedOut, packetPulledOut)))"
attr title "flow specific outgoing packet lengths"
attr unit b
vector 257 TsnLinearNetwork.switch.ethernet.fcsInserter flowOutgoingDataRate:vector ETV
attr interpolationmode linear
attr recordingmode vector
attr source "throughput(demuxFlow(merge(packetPushedOut, packetPulledOut)))"
attr title "flow specific outgoing data rate"
attr unit bps
vector 258 TsnLinearNetwork.switch.ethernet.macHeaderChecker incomingPacketLengths:vector ETV
attr interpolationmode none
attr recordingmode vector
attr source "packetLength(merge(packetPushedIn, packetPulledIn))"
attr title "incoming packet lengths"
attr unit b
vector 259 TsnLinearNetwork.switch.ethernet.macHeaderChecker incomingDataRate:vector ETV
attr interpolationmode linear
attr recordingmode vector
attr source "throughput(merge(packetPushedIn, packetPulledIn))"
attr title "incoming data rate"
attr unit bps
vector 260 TsnLinearNetwork.switch.ethernet.macHeaderChecker outgoingPacketLengths:vector ETV
attr interpolationmode none
attr recordingmode vector
attr source "packetLength(merge(packetPushedOut, packetPulledOut))"
attr title "outgoing packet lengths"
attr unit b
vector 261 TsnLinearNetwork.switch.ethernet.macHeaderChecker outgoingDataRate:vector ETV
attr interpolationmode linear
attr recordingmode vector
attr source "throughput(merge(packetPushedOut, packetPulledOut))"
attr title "outgoing data rate"
attr unit bps
vector 262 TsnLinearNetwork.switch.ethernet.macHeaderChecker droppedPacketLengths:vector ETV
attr interpolationmode none
attr recordingmode vector
attr source packetLength(packetDropped)
attr title "dropped packet lengths"
attr unit b
vector 263 TsnLinearNetwork.switch.ethernet.macHeaderChecker droppedDataRate:vector ETV
attr interpolationmode linear
attr recordingmode vector
attr source throughput(packetDropped)
attr title "dropped data rate"
attr unit bps
vector 264 TsnLinearNetwork.switch.ethernet.macHeaderChecker flowIncomingPacketLengths:vector ETV
attr interpolationmode none
attr recordingmode vector
attr source "packetLength(demuxFlow(merge(packetPushedIn, packetPulledIn)))"
attr title "flow specific incoming packet lengths"
attr unit b
vector 265 TsnLinearNetwork.switch.ethernet.macHeaderChecker flowIncomingDataRate:vector ETV
attr interpolationmode linear
attr recordingmode vector
attr source "throughput(demuxFlow(merge(packetPushedIn, packetPulledIn)))"
attr title "flow specific incoming data rate"
attr unit bps
vector 266 TsnLinearNetwork.switch.ethernet.macHeaderChecker flowOutgoingPacketLengths:vector ETV
attr interpolationmode none
attr recordingmode vector
attr source "packetLength(demuxFlow(merge(packetPushedOut, packetPulledOut)))"
attr title "flow specific outgoing packet lengths"
attr unit b
vector 267 TsnLinearNetwork.switch.ethernet.macHeaderChecker flowOutgoingDataRate:vector ETV
attr interpolationmode linear
attr recordingmode vector
attr source "throughput(demuxFlow(merge(packetPushedOut, packetPulledOut)))"
attr title "flow specific outgoing data rate"
attr unit bps
vector 268 TsnLinearNetwork.switch.ethernet.macHeaderChecker flowDroppedPacketLengths:vector ETV
attr interpolationmode none
attr recordingmode vector
attr source packetLength(demuxFlow(packetDropped))
attr title "flow specific dropped packet lengths"
attr unit b
vector 269 TsnLinearNetwork.switch.ethernet.macHeaderChecker flowDroppedDataRate:vector ETV
attr interpolationmode linear
attr recordingmode vector
attr source throughput(demuxFlow(packetDropped))
attr title "flow specific dropped data rate"
attr unit bps
vector 270 TsnLinearNetwork.switch.ethernet.fcsChecker incomingPacketLengths:vector ETV
attr interpolationmode none
attr recordingmode vector
attr source "packetLength(merge(packetPushedIn, packetPulledIn))"
attr title "incoming packet lengths"
attr unit b
vector 271 TsnLinearNetwork.switch.ethernet.fcsChecker incomingDataRate:vector ETV
attr interpolationmode linear
attr recordingmode vector
attr source "throughput(merge(packetPushedIn, packetPulledIn))"
attr title "incoming data rate"
attr unit bps
vector 272 TsnLinearNetwork.switch.ethernet.fcsChecker outgoingPacketLengths:vector ETV
attr interpolationmode none
attr recordingmode vector
attr source "packetLength(merge(packetPushedOut, packetPulledOut))"
attr title "outgoing packet lengths"
attr unit b
vector 273 TsnLinearNetwork.switch.ethernet.fcsChecker outgoingDataRate:vector ETV
attr interpolationmode linear
attr recordingmode vector
attr source "throughput(merge(packetPushedOut, packetPulledOut))"
attr title "outgoing data rate"
attr unit bps
vector 274 TsnLinearNetwork.switch.ethernet.fcsChecker droppedPacketLengths:vector ETV
attr interpolationmode none
attr recordingmode vector
attr source packetLength(packetDropped)
attr title "dropped packet lengths"
attr unit b
vector 275 TsnLinearNetwork.switch.ethernet.fcsChecker droppedDataRate:vector ETV
attr interpolationmode linear
attr recordingmode vector
attr source throughput(packetDropped)
attr title "dropped data rate"
attr unit bps
vector 276 TsnLinearNetwork.switch.ethernet.fcsChecker flowIncomingPacketLengths:vector ETV
attr interpolationmode none
attr recordingmode vector
attr source "packetLength(demuxFlow(merge(packetPushedIn, packetPulledIn)))"
attr title "flow specific incoming packet lengths"
attr unit b
vector 277 TsnLinearNetwork.switch.ethernet.fcsChecker flowIncomingDataRate:vector ETV
attr interpolationmode linear
attr recordingmode vector
attr source "throughput(demuxFlow(merge(packetPushedIn, packetPulledIn)))"
attr title "flow specific incoming data rate"
attr unit bps
vector 278 TsnLinearNetwork.switch.ethernet.fcsChecker flowOutgoingPacketLengths:vector ETV
attr interpolationmode none
attr recordingmode vector
attr source "packetLength(demuxFlow(merge(packetPushedOut, packetPulledOut)))"
attr title "flow specific outgoing packet lengths"
attr unit b
vector 279 TsnLinearNetwork.switch.ethernet.fcsChecker flowOutgoingDataRate:vector ETV
attr interpolationmode linear
attr recordingmode vector
attr source "throughput(demuxFlow(merge(packetPushedOut, packetPulledOut)))"
attr title "flow specific outgoing data rate"
attr unit bps
vector 280 TsnLinearNetwork.switch.ethernet.fcsChecker flowDroppedPacketLengths:vector ETV
attr interpolationmode none
attr recordingmode vector
attr source packetLength(demuxFlow(packetDropped))
attr title "flow specific dropped packet lengths"
attr unit b
vector 281 TsnLinearNetwork.switch.ethernet.fcsChecker flowDroppedDataRate:vector ETV
attr interpolationmode linear
attr recordingmode vector
attr source throughput(demuxFlow(packetDropped))
attr title "flow specific dropped data rate"
attr unit bps
vector 282 TsnLinearNetwork.switch.ieee8021q.qTagHeaderInserter incomingPacketLengths:vector ETV
attr interpolationmode none
attr recordingmode vector
attr source "packetLength(merge(packetPushedIn, packetPulledIn))"
attr title "incoming packet lengths"
attr unit b
vector 283 TsnLinearNetwork.switch.ieee8021q.qTagHeaderInserter incomingDataRate:vector ETV
attr interpolationmode linear
attr recordingmode vector
attr source "throughput(merge(packetPushedIn, packetPulledIn))"
attr title "incoming data rate"
attr unit bps
vector 284 TsnLinearNetwork.switch.ieee8021q.qTagHeaderInserter outgoingPacketLengths:vector ETV
attr interpolationmode none
attr recordingmode vector
attr source "packetLength(merge(packetPushedOut, packetPulledOut))"
attr title "outgoing packet lengths"
attr unit b
vector 285 TsnLinearNetwork.switch.ieee8021q.qTagHeaderInserter outgoingDataRate:vector ETV
attr interpolationmode linear
attr recordingmode vector
attr source "throughput(merge(packetPushedOut, packetPulledOut))"
attr title "outgoing data rate"
attr unit bps
vector 286 TsnLinearNetwork.switch.ieee8021q.qTagHeaderInserter flowIncomingPacketLengths:vector ETV
attr interpolationmode none
attr recordingmode vector
[...]
attr unit b
vector 1012 TsnLinearNetwork.server.app[1].sink dataRate:vector ETV
attr interpolationmode linear
attr recordingmode vector
attr source throughput(packetPushed)
attr title "data rate"
attr unit bps
vector 1013 TsnLinearNetwork.server.app[1].sink meanBitLifeTimePerPacket:vector ETV
attr interpolationmode none
attr recordingmode vector
attr source weightedMeanPerGroup(groupRegionsPerPacket(lifeTimePerRegion(packetPushed)))
attr title "mean bit life time per packet"
attr unit s
vector 1014 TsnLinearNetwork.server.app[1].sink packetJitter:vector ETV
attr interpolationmode none
attr recordingmode vector
attr source jitter(weightedMeanPerGroup(groupRegionsPerPacket(lifeTimePerRegion(packetPushed))))
attr title "packet jitter"
attr unit s
vector 1015 TsnLinearNetwork.server.app[1].sink packetDelayDifferenceToMean:vector ETV
attr interpolationmode none
attr recordingmode vector
attr source differenceToMean(weightedMeanPerGroup(groupRegionsPerPacket(lifeTimePerRegion(packetPushed))))
attr title "packet delay difference to mean"
attr unit s
vector 1016 TsnLinearNetwork.server.app[1].sink packetDelayVariation:vector ETV
attr recordingmode vector
attr source stddev(weightedMeanPerGroup(groupRegionsPerPacket(lifeTimePerRegion(packetPushed))))
attr title "packet delay variation"
attr unit s
vector 1017 TsnLinearNetwork.server.app[1].io packetSent:vector(packetBytes) ETV
attr interpolationmode none
attr recordingmode vector(packetBytes)
attr source packetSent
attr title "packets sent, packetBytes"
vector 1018 TsnLinearNetwork.server.app[1].io packetReceived:vector(packetBytes) ETV
attr interpolationmode none
attr recordingmode vector(packetBytes)
attr source packetReceived
attr title "packets received, packetBytes"
10	288123 571 17 454 0 0.019797351697 23 736 2272 23072 30940160
12	288694 571 17 454 0 0.019797351697 23 736 2272 23072 30940160
26	289265 571 17 454 0 0.019797351697 23 736 2272 23072 30940160
28	289836 571 17 454 0 0.019797351697 23 736 2272 23072 30940160
34	290407 571 17 454 0 0.019797351697 23 768 2304 23808 32440320
36	290978 571 17 454 0 0.019797351697 23 880 2416 26384 38061824
42	291549 571 17 454 0 0.019797351697 23 880 2416 26384 38061824
44	292120 571 17 454 0 0.019797351697 23 880 2416 26384 38061824
50	292691 571 17 454 0 0.019797351697 23 880 2416 26384 38061824
52	293262 571 17 454 0 0.019797351697 23 912 2448 27120 39773952
82	293833 571 17 454 0 0.019797351697 23 736 2272 23072 30940160
84	294404 571 17 454 0 0.019797351697 23 768 2304 23808 32440320
106	294975 1147 0 455 0 0.019797351697 51 0 2 25 27
107	296122 1200 0 455 0 0.019797351697 51 0 3360 30480 51063552
108	297322 572 19 455 0 0.019797351697 23 0 1.072e-05 1.1895658e-05 1.1630057173296e-10
109	297894 594 17 454 0 0.019797351697 23 912 2448 27120 39773952
111	298488 603 19 455 0 0.019797351697 23 912 2448 27120 39773952
117	299091 603 19 455 0 0.019797351697 23 912 2448 27120 39773952
119	299694 603 19 455 0 0.019797351697 23 912 2448 27120 39773952
121	300297 603 19 455 0 0.019797351697 23 912 2448 27120 39773952
123	300900 603 19 455 0 0.019797351697 23 912 2448 27120 39773952
149	301503 603 19 455 0 0.019797351697 23 912 2448 27120 39773952
151	302106 603 19 455 0 0.019797351697 23 976 2512 28592 43339520
157	302709 1118 0 456 0 0.019807111697 47 0 1 23 23
158	303827 603 19 455 0 0.019797351697 23 976 2512 28592 43339520
160	304430 603 19 455 0 0.019797351697 23 976 2512 28592 43339520
166	305033 1135 0 456 0 0.019807111697 48 0 1 23 23
169	306168 727 20 456 0.00000976 0.019807111697 23 9.76e-06 2.512e-05 0.00028592 4.333952e-09
202	306895 571 13 452 0 0.019797351697 23 72 264 2424 377280
204	307466 10 0 0 0 0 1 0 0 0 0
205	307476 10 0 0 0 0 1 0 0 0 0
206	307486 10 0 0 0 0 1 0 0 0 0
207	307496 495 0 450 0 0.019797351697 19 512 512 9728 4980736
209	307991 476 2 451 0 0.019797351697 19 64 64 1216 77824
211	308467 97 0 332 0 0.015079935443 4 2048 2048 8192 16777216
213	308564 93 3 333 0 0.015079935443 4 256 256 1024 262144
215	308657 612 21 457 0.00000981 0.019807161697 23 736 2272 23072 30940160
217	309269 612 21 457 0.00000981 0.019807161697 23 736 2272 23072 30940160
225	309881 612 21 457 0.00000981 0.019807161697 23 736 2272 23072 30940160
227	310493 612 21 457 0.00000981 0.019807161697 23 736 2272 23072 30940160
234	311105 612 21 457 0.00000981 0.019807161697 23 736 2272 23072 30940160
236	311717 612 21 457 0.00000981 0.019807161697 23 848 2384 25648 36396800
242	312329 612 21 457 0.00000981 0.019807161697 23 848 2384 25648 36396800
244	312941 612 21 457 0.00000981 0.019807161697 23 848 2384 25648 36396800
250	313553 612 21 457 0.00000981 0.019807161697 23 848 2384 25648 36396800
252	314165 612 21 457 0.00000981 0.019807161697 23 880 2416 26384 38061824
258	314777 612 21 457 0.00000981 0.019807161697 23 880 2416 26384 38061824
260	315389 612 21 457 0.00000981 0.019807161697 23 768 2304 23808 32440320
270	316001 612 21 457 0.00000981 0.019807161697 23 912 2448 27120 39773952
272	316613 612 21 457 0.00000981 0.019807161697 23 880 2416 26384 38061824
290	317225 612 21 457 0.00000981 0.019807161697 23 768 2304 23808 32440320
292	317837 612 21 457 0.00000981 0.019807161697 23 736 2272 23072 30940160
324	318449 50 0 0 0 0 5 0 0 0 0
325	318499 50 0 0 0 0 5 0 0 0 0
335	318549 50 0 0 0 0 5 0 0 0 0
336	318599 50 0 0 0 0 5 0 0 0 0
346	318649 50 0 0 0 0 5 0 0 0 0
347	318699 50 0 0 0 0 5 0 0 0 0
357	318749 50 0 0 0 0 5 0 0 0 0
358	318799 50 0 0 0 0 5 0 0 0 0
368	318849 50 0 0 0 0 5 0 0 0 0
369	318899 50 0 0 0 0 5 0 0 0 0
379	318949 50 0 0 0 0 5 0 0 0 0
380	318999 50 0 0 0 0 5 0 0 0 0
390	319049 50 0 0 0 0 5 0 0 0 0
391	319099 50 0 0 0 0 5 0 0 0 0
401	319149 50 0 0 0 0 5 0 0 0 0
402	319199 50 0 0 0 0 5 0 0 0 0
420	319249 10 0 0 0 0 1 1 1 1 1
421	319259 10 0 0 0 0 1 0 0 0 0
430	319269 56 0 301 0 0.014 4 0 1 2 2
431	319325 10 0 0 0 0 1 0 0 0 0
440	319335 10 0 0 0 0 1 1 1 1 1
441	319345 10 0 0 0 0 1 0 0 0 0
450	319355 10 0 0 0 0 1 1 1 1 1
451	319365 10 0 0 0 0 1 0 0 0 0
460	319375 10 0 0 0 0 1 1 1 1 1
461	319385 10 0 0 0 0 1 0 0 0 0
470	319395 10 0 0 0 0 1 1 1 1 1
471	319405 10 0 0 0 0 1 0 0 0 0
480	319415 10 0 0 0 0 1 1 1 1 1
481	319425 10 0 0 0 0 1 0 0 0 0
490	319435 73 0 408 0 0.016 5 0 1 2 2
491	319508 10 0 0 0 0 1 0 0 0 0
494	319518 50 0 0 0 0 5 0 0 0 0
495	319568 50 0 0 0 0 5 0 0 0 0
517	319618 612 21 457 0.00000981 0.019807161697 23 912 2448 27120 39773952
519	320230 612 21 457 0.00000981 0.019807161697 23 912 2448 27120 39773952
529	320842 612 21 457 0.00000981 0.019807161697 23 912 2448 27120 39773952
531	321454 612 21 457 0.00000981 0.019807161697 23 912 2448 27120 39773952
545	322066 20 0 0 0 0 2 0 0 0 0
554	322086 20 0 0 0 0 2 0 0 0 0
559	322106 612 21 457 0.00000981 0.019807161697 23 976 2512 28592 43339520
561	322718 612 21 457 0.00000981 0.019807161697 23 912 2448 27120 39773952
571	323330 612 21 457 0.00000981 0.019807161697 23 976 2512 28592 43339520
573	323942 612 21 457 0.00000981 0.019807161697 23 976 2512 28592 43339520
580	324554 727 21 457 0.00000981 0.019807161697 23 9.76e-06 2.512e-05 0.00028592 4.333952e-09
584	325281 612 21 457 0.00000981 0.019807161697 23 880 2416 26384 38061824
586	325893 984 0 458 0 0.019807161697 43 0 1 19 19
587	326877 1022 0 458 0 0.019807161697 43 0 880 16720 14713600
588	327899 475 22 458 0.00000981 0.019807161697 19 0 1.504e-05 1.504e-05 2.262016e-10
589	328374 505 21 457 0.00000981 0.019807161697 19 880 880 16720 14713600
591	328879 505 22 458 0.00000981 0.019807161697 19 880 880 16720 14713600
597	329384 50 0 0 0 0 5 0 0 0 0
598	329434 50 0 0 0 0 5 0 0 0 0
608	329484 50 0 0 0 0 5 0 0 0 0
609	329534 50 0 0 0 0 5 0 0 0 0
619	329584 50 0 0 0 0 5 0 0 0 0
620	329634 50 0 0 0 0 5 0 0 0 0
630	329684 50 0 0 0 0 5 0 0 0 0
631	329734 50 0 0 0 0 5 0 0 0 0
641	329784 50 0 0 0 0 5 0 0 0 0
642	329834 50 0 0 0 0 5 0 0 0 0
652	329884 50 0 0 0 0 5 0 0 0 0
653	329934 50 0 0 0 0 5 0 0 0 0
663	329984 227 0 346 0 0.015105105443 13 0 1 4 4
664	330211 239 0 346 0 0.015105105443 13 0 2416 9664 23348224
665	330450 104 100 346 0.004 0.015105105443 4 0 0.004989226115 0.008953336115 4.0606545318698e-05
666	330554 107 35 345 0.00003589 0.015105105443 4 2416 2416 9664 23348224
668	330661 94 100 346 0.004 0.015105105443 4 2416 2416 9664 23348224
674	330755 505 22 458 0.00000981 0.019807161697 19 880 880 16720 14713600
676	331260 505 22 458 0.00000981 0.019807161697 19 880 880 16720 14713600
682	331765 10 0 0 0 0 1 1 1 1 1
683	331775 10 0 0 0 0 1 0 0 0 0
692	331785 56 0 302 0 0.014 4 0 1 2 2
693	331841 10 0 0 0 0 1 0 0 0 0
702	331851 10 0 0 0 0 1 1 1 1 1
703	331861 10 0 0 0 0 1 0 0 0 0
712	331871 10 0 0 0 0 1 1 1 1 1
713	331881 10 0 0 0 0 1 0 0 0 0
722	331891 10 0 0 0 0 1 1 1 1 1
723	331901 10 0 0 0 0 1 0 0 0 0
732	331911 10 0 0 0 0 1 1 1 1 1
733	331921 10 0 0 0 0 1 0 0 0 0
742	331931 10 0 0 0 0 1 1 1 1 1
743	331941 10 0 0 0 0 1 0 0 0 0
744	331951 94 100 346 0.004 0.015105105443 4 2416 2416 9664 23348224
746	332045 94 100 346 0.004 0.015105105443 4 2416 2416 9664 23348224
752	332139 73 0 409 0 0.016 5 0 1 2 2
753	332212 10 0 0 0 0 1 0 0 0 0
754	332222 599 22 458 0.00000981 0.019807161697 23 880 2416 26384 38061824
756	332821 1161 0 458 0 0.019807161697 51 0 2 41 59
757	333982 1247 0 458 0 0.019807161697 51 0 3296 69872 181398272
758	335229 549 22 458 0.00000981 0.019807161697 23 0 0 0 0
759	335778 612 21 457 0.00000981 0.019807161697 23 880 2416 26384 38061824
761	336390 599 22 458 0.00000981 0.019807161697 23 880 2416 26384 38061824
767	336989 599 22 458 0.00000981 0.019807161697 23 880 2416 26384 38061824
769	337588 599 22 458 0.00000981 0.019807161697 23 880 2416 26384 38061824
771	338187 599 22 458 0.00000981 0.019807161697 23 880 2416 26384 38061824
773	338786 599 22 458 0.00000981 0.019807161697 23 880 2416 26384 38061824
799	339385 599 22 458 0.00000981 0.019807161697 23 880 2416 26384 38061824
801	339984 599 22 458 0.00000981 0.019807161697 23 944 2480 27856 41533184
807	340583 1086 0 448 0 0.018145350497 46 0 1 22 22
808	341669 599 22 458 0.00000981 0.019807161697 23 944 2480 27856 41533184
810	342268 599 22 458 0.00000981 0.019807161697 23 944 2480 27856 41533184
816	342867 1101 0 458 0 0.019807161697 47 0 1 23 23
819	343968 686 25 442 0.00001925 0.018144390497 22 9.44e-06 2.48e-05 0.00026912 4.0642048e-09
870	344654 581 26 443 0.0000193 0.018144440497 22 848 2384 24800 35677696
872	345235 581 26 443 0.0000193 0.018144440497 22 736 2272 22336 30398464
882	345816 581 26 443 0.0000193 0.018144440497 22 880 2416 25504 37287424
884	346397 581 26 443 0.0000193 0.018144440497 22 848 2384 24800 35677696
898	346978 50 0 0 0 0 5 0 0 0 0
899	347028 50 0 0 0 0 5 0 0 0 0
921	347078 581 26 443 0.0000193 0.018144440497 22 880 2416 25504 37287424
923	347659 581 26 443 0.0000193 0.018144440497 22 880 2416 25504 37287424
933	348240 581 26 443 0.0000193 0.018144440497 22 880 2416 25504 37287424
935	348821 581 26 443 0.0000193 0.018144440497 22 880 2416 25504 37287424
949	349402 20 0 0 0 0 2 0 0 0 0
958	349422 20 0 0 0 0 2 0 0 0 0
963	349442 581 26 443 0.0000193 0.018144440497 22 944 2480 26912 40642048
965	350023 581 26 443 0.0000193 0.018144440497 22 880 2416 25504 37287424
975	350604 581 26 443 0.0000193 0.018144440497 22 944 2480 26912 40642048
977	351185 581 26 443 0.0000193 0.018144440497 22 944 2480 26912 40642048
984	351766 687 26 443 0.0000193 0.018144440497 22 9.44e-06 2.48e-05 0.00026912 4.0642048e-09
995	352453 559 28 445 0.0000193 0.018144440497 22 72 264 2352 372096
996	353012 556 0 445 0 0.018144440497 23 0 22 253 3795
997	353568 10 0 0 0 0 1 0 0 0 0
998	353578 10 0 0 0 0 1 0 0 0 0
999	353588 477 30 447 0.0000193 0.018144440497 18 512 512 9216 4718592
1001	354065 495 30 447 0.0000193 0.018144440497 18 512 512 9216 4718592
1003	354560 558 54 447 0.0000193 0.016575544379 17 1.93e-05 3.5515658e-05 0.000344315658 7.221201963173e-09
1004	355118 466 54 447 0.0000193 0.016575544379 17 -1.6215658e-05 1.93e-05 1.93e-05 8.9838512874593e-10
1005	355584 575 54 447 0.0000193 0.016575544379 17 -1.5057396714286e-05 1.0810438666667e-06 -1.2009011987325e-05 2.2983084374029e-10
1006	356159 506 54 447 0.0000193 0.016575544379 17 0 4.1761704560927e-06 1.596170100293e-05 6.3766315935498e-11
1008	356665 477 29 446 0.0000193 0.018144440497 18 64 64 1152 73728
1009	357142 108 106 359 0.00402485 0.015129955443 4 2048 2048 8192 16777216
1011	357250 108 106 359 0.00402485 0.015129955443 4 2048 2048 8192 16777216
1013	357358 100 310 359 0.00402485 0.014546108752 3 5.002e-05 0.005039246115 0.009114116115 4.1595920930443e-05
1014	357458 106 310 359 0.00402485 0.014546108752 3 -0.004989226115 0.00402485 5.002e-05 4.2120794227225e-05
1015	357564 98 310 359 0.00402485 0.014546108752 3 -0.0005071980575 0.002988018705 0.0024808206475 9.1855056509616e-06
1016	357662 105 310 359 0.00402485 0.014546108752 3 0 0.0021530557885563 0.0026602564830896 4.892901773171e-06
1018	357767 104 105 358 0.00402485 0.015129955443 4 256 256 1024 262144
63	357871 24 458 458 0.019807161697 0.019807161697 1 0 0 0 0
75	357895 24 458 458 0.019807161697 0.019807161697 1 0 0 0 0
95	357919 24 458 458 0.019807161697 0.019807161697 1 0 0 0 0
110	357943 39 458 458 0.019807161697 0.019807161697 1 1369201.7268738 1369201.7268738 1369201.7268738 1874713368874.1
112	357982 39 458 458 0.019807161697 0.019807161697 1 1369201.7268738 1369201.7268738 1369201.7268738 1874713368874.1
118	358021 39 458 458 0.019807161697 0.019807161697 1 1369201.7268738 1369201.7268738 1369201.7268738 1874713368874.1
120	358060 39 458 458 0.019807161697 0.019807161697 1 1369201.7268738 1369201.7268738 1369201.7268738 1874713368874.1
134	358099 25 458 458 0.019807161697 0.019807161697 1 0 0 0 0
167	358124 39 458 458 0.019807161697 0.019807161697 1 1443518.2807808 1443518.2807808 1443518.2807808 2083745026948.2
176	358163 25 458 458 0.019807161697 0.019807161697 1 0 0 0 0
191	358188 25 458 458 0.019807161697 0.019807161697 1 0 0 0 0
208	358213 39 458 458 0.019807161697 0.019807161697 1 491135.48668982 491135.48668982 491135.48668982 241214066286.04
212	358252 39 458 458 0.019807161697 0.019807161697 1 413587.77826511 413587.77826511 413587.77826511 171054850330.27
263	358291 25 458 458 0.019807161697 0.019807161697 1 0 0 0 0
275	358316 25 458 458 0.019807161697 0.019807161697 1 0 0 0 0
295	358341 25 458 458 0.019807161697 0.019807161697 1 0 0 0 0
315	358366 25 458 458 0.019807161697 0.019807161697 1 0 0 0 0
323	358391 25 458 458 0.019807161697 0.019807161697 1 0 0 0 0
328	358416 25 458 458 0.019807161697 0.019807161697 1 0 0 0 0
330	358441 25 458 458 0.019807161697 0.019807161697 1 0 0 0 0
339	358466 25 458 458 0.019807161697 0.019807161697 1 0 0 0 0
341	358491 25 458 458 0.019807161697 0.019807161697 1 0 0 0 0
350	358516 25 458 458 0.019807161697 0.019807161697 1 0 0 0 0
352	358541 25 458 458 0.019807161697 0.019807161697 1 0 0 0 0
361	358566 25 458 458 0.019807161697 0.019807161697 1 0 0 0 0
363	358591 25 458 458 0.019807161697 0.019807161697 1 0 0 0 0
372	358616 25 458 458 0.019807161697 0.019807161697 1 0 0 0 0
374	358641 25 458 458 0.019807161697 0.019807161697 1 0 0 0 0
383	358666 25 458 458 0.019807161697 0.019807161697 1 0 0 0 0
385	358691 25 458 458 0.019807161697 0.019807161697 1 0 0 0 0
394	358716 25 458 458 0.019807161697 0.019807161697 1 0 0 0 0
396	358741 25 458 458 0.019807161697 0.019807161697 1 0 0 0 0
405	358766 25 458 458 0.019807161697 0.019807161697 1 0 0 0 0
407	358791 25 458 458 0.019807161697 0.019807161697 1 0 0 0 0
421	358816 25 458 458 0.019807161697 0.019807161697 1 0 0 0 0
431	358841 25 458 458 0.019807161697 0.019807161697 1 0 0 0 0
441	358866 25 458 458 0.019807161697 0.019807161697 1 0 0 0 0
451	358891 25 458 458 0.019807161697 0.019807161697 1 0 0 0 0
461	358916 25 458 458 0.019807161697 0.019807161697 1 0 0 0 0
471	358941 25 458 458 0.019807161697 0.019807161697 1 0 0 0 0
481	358966 25 458 458 0.019807161697 0.019807161697 1 0 0 0 0
491	358991 25 458 458 0.019807161697 0.019807161697 1 0 0 0 0
493	359016 25 458 458 0.019807161697 0.019807161697 1 0 0 0 0
506	359041 25 458 458 0.019807161697 0.019807161697 1 0 0 0 0
508	359066 25 458 458 0.019807161697 0.019807161697 1 0 0 0 0
522	359091 25 458 458 0.019807161697 0.019807161697 1 0 0 0 0
555	359116 25 458 458 0.019807161697 0.019807161697 1 0 0 0 0
564	359141 25 458 458 0.019807161697 0.019807161697 1 0 0 0 0
579	359166 39 458 458 0.019807161697 0.019807161697 1 1443518.2807808 1443518.2807808 1443518.2807808 2083745026948.2
585	359205 39 458 458 0.019807161697 0.019807161697 1 1332043.4499202 1332043.4499202 1332043.4499202 1774339752475.4
590	359244 39 458 458 0.019807161697 0.019807161697 1 844139.11774812 844139.11774812 844139.11774812 712570850112.58
592	359283 39 458 458 0.019807161697 0.019807161697 1 844139.11774812 844139.11774812 844139.11774812 712570850112.58
601	359322 25 458 458 0.019807161697 0.019807161697 1 0 0 0 0
603	359347 25 458 458 0.019807161697 0.019807161697 1 0 0 0 0
612	359372 25 458 458 0.019807161697 0.019807161697 1 0 0 0 0
614	359397 25 458 458 0.019807161697 0.019807161697 1 0 0 0 0
623	359422 25 458 458 0.019807161697 0.019807161697 1 0 0 0 0
625	359447 25 458 458 0.019807161697 0.019807161697 1 0 0 0 0
634	359472 25 458 458 0.019807161697 0.019807161697 1 0 0 0 0
636	359497 25 458 458 0.019807161697 0.019807161697 1 0 0 0 0
645	359522 25 458 458 0.019807161697 0.019807161697 1 0 0 0 0
647	359547 25 458 458 0.019807161697 0.019807161697 1 0 0 0 0
656	359572 25 458 458 0.019807161697 0.019807161697 1 0 0 0 0
658	359597 25 458 458 0.019807161697 0.019807161697 1 0 0 0 0
667	359622 39 458 458 0.019807161697 0.019807161697 1 487904.33217212 487904.33217212 487904.33217212 238050637352.32
669	359661 39 458 458 0.019807161697 0.019807161697 1 487904.33217212 487904.33217212 487904.33217212 238050637352.32
683	359700 25 458 458 0.019807161697 0.019807161697 1 0 0 0 0
693	359725 25 458 458 0.019807161697 0.019807161697 1 0 0 0 0
703	359750 25 458 458 0.019807161697 0.019807161697 1 0 0 0 0
713	359775 25 458 458 0.019807161697 0.019807161697 1 0 0 0 0
723	359800 25 458 458 0.019807161697 0.019807161697 1 0 0 0 0
733	359825 25 458 458 0.019807161697 0.019807161697 1 0 0 0 0
743	359850 25 458 458 0.019807161697 0.019807161697 1 0 0 0 0
753	359875 25 458 458 0.019807161697 0.019807161697 1 0 0 0 0
755	359900 39 458 458 0.019807161697 0.019807161697 1 1332043.4499202 1332043.4499202 1332043.4499202 1774339752475.4
768	359939 39 458 458 0.019807161697 0.019807161697 1 1332043.4499202 1332043.4499202 1332043.4499202 1774339752475.4
770	359978 39 458 458 0.019807161697 0.019807161697 1 1332043.4499202 1332043.4499202 1332043.4499202 1774339752475.4
784	360017 25 458 458 0.019807161697 0.019807161697 1 0 0 0 0
817	360042 39 458 458 0.019807161697 0.019807161697 1 1358700.4746912 1358700.4746912 1358700.4746912 1846066979926.2
826	360081 25 458 458 0.019807161697 0.019807161697 1 0 0 0 0
841	360106 25 458 458 0.019807161697 0.019807161697 1 0 0 0 0
875	360131 25 458 458 0.019807161697 0.019807161697 1 0 0 0 0
887	360156 25 458 458 0.019807161697 0.019807161697 1 0 0 0 0
902	360181 25 458 458 0.019807161697 0.019807161697 1 0 0 0 0
904	360206 25 458 458 0.019807161697 0.019807161697 1 0 0 0 0
910	360231 25 458 458 0.019807161697 0.019807161697 1 0 0 0 0
912	360256 25 458 458 0.019807161697 0.019807161697 1 0 0 0 0
926	360281 25 458 458 0.019807161697 0.019807161697 1 0 0 0 0
959	360306 25 458 458 0.019807161697 0.019807161697 1 0 0 0 0
968	360331 25 458 458 0.019807161697 0.019807161697 1 0 0 0 0
983	360356 39 458 458 0.019807161697 0.019807161697 1 1358700.4746912 1358700.4746912 1358700.4746912 1846066979926.2
1000	360395 40 458 458 0.019807161697 0.019807161697 1 465286.25054825 465286.25054825 465286.25054825 216491294949.25
1002	360435 40 458 458 0.019807161697 0.019807161697 1 465286.25054825 465286.25054825 465286.25054825 216491294949.25
1010	360475 40 458 458 0.019807161697 0.019807161697 1 413587.77826511 413587.77826511 413587.77826511 171054850330.27
1012	360515 40 458 458 0.019807161697 0.019807161697 1 413587.77826511 413587.77826511 413587.77826511 171054850330.27

