version 3
run General-0-20251031-10:25:29-10382
attr configname General
attr datetime 20251031-10:25:29
attr datetimef 20251031-102529
attr experiment General
attr inifile omnetpp.ini
attr iterationvars ""
attr iterationvarsd ""
attr iterationvarsf ""
attr measurement ""
attr network inet.networks.tsn.TsnLinearNetwork
attr processid 10382
attr repetition 0
attr replication #0
attr resultdir results
attr runnumber 0
attr seedset 0
config image-path ../../inet/images
config network inet.networks.tsn.TsnLinearNetwork
config sim-time-limit 1s
config description "TSN features applied to In-Vehicle Networks"
config **.displayGateSchedules true
config **.gateFilter "\"**.eth[1].**\""
config **.gateScheduleVisualizer.height 16
config **.gateScheduleVisualizer.placementHint "\"top\""
config *.client.numApps 2
config *.client.app[*].typename UdpSourceApp
config *.client.app[*].io.destAddress "\"server\""
config *.client.app[0].display-name "speed/torque command"
config *.client.app[0].io.destPort 1000
config *.client.app[0].source.productionInterval exponential(1ms)
config *.client.app[0].source.packetLength "128B - 64B"
config *.client.app[1].display-name "brake command"
config *.client.app[1].io.destPort 1001
config *.client.app[1].source.productionInterval exponential(10ms)
config *.client.app[1].source.packetLength 256B
config *.server.numApps 2
config *.server.app[*].typename UdpSinkApp
config *.server.app[0].io.localPort 1000
config *.server.app[1].io.localPort 1001
config *.client.hasOutgoingStreams true
config *.client.bridging.streamIdentifier.identifier.mapping "[{stream: \"speed/torque command\", packetFilter: expr(udp.destPort == 1000)},\n                                                         {stream: \"brake command\", packetFilter: expr(udp.destPort == 1001)}]"
config *.client.bridging.streamCoder.encoder.mapping "[{stream: \"speed/torque command\", pcp: 7},\n                                                 {stream: \"brake command\", pcp: 5}]"
config *.switch.hasEgressTrafficShaping true
config *.switch.bridging.directionReverser.reverser.excludeEncapsulationProtocols "[\"ieee8021qctag\"]"
config *.switch.eth[*].macLayer.queue.numTrafficClasses 8
config *.switch.eth[*].macLayer.queue.*[7].display-name "speed/torque command"
config *.switch.eth[*].macLayer.queue.transmissionGate[7].offset 0ms
config *.switch.eth[*].macLayer.queue.transmissionGate[7].durations "[4ms, 6ms]"
config *.switch.eth[*].macLayer.queue.*[5].display-name "brake command"
config *.switch.eth[*].macLayer.queue.transmissionGate[5].offset 6ms
config *.switch.eth[*].macLayer.queue.transmissionGate[5].durations "[2ms, 8ms]"
config *.switch.hasIngressTrafficFiltering false
config *.switch.bridging.streamFilter.ingress.numStreams 2
config *.switch.bridging.streamFilter.ingress.classifier.mapping "{\"speed/torque command\": 0, \"brake command\": 1}"
config *.switch.bridging.streamFilter.ingress.meter[*].typename SingleRateTwoColorMeter
config *.switch.bridging.streamFilter.ingress.meter[7].display-name "speed/torque command"
config *.switch.bridging.streamFilter.ingress.meter[7].committedInformationRate 40Mbps
config *.switch.bridging.streamFilter.ingress.meter[7].committedBurstSize 10kB
config *.switch.bridging.streamFilter.ingress.meter[5].display-name "brake command"
config *.switch.bridging.streamFilter.ingress.meter[5].committedInformationRate 20Mbps
config *.switch.bridging.streamFilter.ingress.meter[5].committedBurstSize 5kB

vector 0 TsnLinearNetwork.client.bridging.directionReverser.reverser incomingPacketLengths:vector ETV
attr interpolationmode none
attr recordingmode vector
attr source "packetLength(merge(packetPushedIn, packetPulledIn))"
attr title "incoming packet lengths"
attr unit b
vector 1 TsnLinearNetwork.client.bridging.directionReverser.reverser incomingDataRate:vector ETV
attr interpolationmode linear
attr recordingmode vector
attr source "throughput(merge(packetPushedIn, packetPulledIn))"
attr title "incoming data rate"
attr unit bps
vector 2 TsnLinearNetwork.client.bridging.directionReverser.reverser outgoingPacketLengths:vector ETV
attr interpolationmode none
attr recordingmode vector
attr source "packetLength(merge(packetPushedOut, packetPulledOut))"
attr title "outgoing packet lengths"
attr unit b
vector 3 TsnLinearNetwork.client.bridging.directionReverser.reverser outgoingDataRate:vector ETV
attr interpolationmode linear
attr recordingmode vector
attr source "throughput(merge(packetPushedOut, packetPulledOut))"
attr title "outgoing data rate"
attr unit bps
vector 4 TsnLinearNetwork.client.bridging.directionReverser.reverser flowIncomingPacketLengths:vector ETV
attr interpolationmode none
attr recordingmode vector
attr source "packetLength(demuxFlow(merge(packetPushedIn, packetPulledIn)))"
attr title "flow specific incoming packet lengths"
attr unit b
vector 5 TsnLinearNetwork.client.bridging.directionReverser.reverser flowIncomingDataRate:vector ETV
attr interpolationmode linear
attr recordingmode vector
attr source "throughput(demuxFlow(merge(packetPushedIn, packetPulledIn)))"
attr title "flow specific incoming data rate"
attr unit bps
vector 6 TsnLinearNetwork.client.bridging.directionReverser.reverser flowOutgoingPacketLengths:vector ETV
attr interpolationmode none
attr recordingmode vector
attr source "packetLength(demuxFlow(merge(packetPushedOut, packetPulledOut)))"
attr title "flow specific outgoing packet lengths"
attr unit b
vector 7 TsnLinearNetwork.client.bridging.directionReverser.reverser flowOutgoingDataRate:vector ETV
attr interpolationmode linear
attr recordingmode vector
attr source "throughput(demuxFlow(merge(packetPushedOut, packetPulledOut)))"
attr title "flow specific outgoing data rate"
attr unit bps
vector 8 TsnLinearNetwork.client.bridging.directionReverser.join packetLengths:vector ETV
attr interpolationmode none
attr recordingmode vector
attr source "packetLength(merge(packetPushed, packetPulled))"
attr title "packet lengths"
attr unit b
vector 9 TsnLinearNetwork.client.bridging.directionReverser.join dataRate:vector ETV
attr interpolationmode linear
attr recordingmode vector
attr source "throughput(merge(packetPushed, packetPulled))"
attr title "data rate"
attr unit bps
vector 10 TsnLinearNetwork.client.bridging.streamIdentifier.identifier incomingPacketLengths:vector ETV
attr interpolationmode none
attr recordingmode vector
attr source "packetLength(merge(packetPushedIn, packetPulledIn))"
attr title "incoming packet lengths"
attr unit b
vector 11 TsnLinearNetwork.client.bridging.streamIdentifier.identifier incomingDataRate:vector ETV
attr interpolationmode linear
attr recordingmode vector
attr source "throughput(merge(packetPushedIn, packetPulledIn))"
attr title "incoming data rate"
attr unit bps
vector 12 TsnLinearNetwork.client.bridging.streamIdentifier.identifier outgoingPacketLengths:vector ETV
attr interpolationmode none
attr recordingmode vector
attr source "packetLength(merge(packetPushedOut, packetPulledOut))"
attr title "outgoing packet lengths"
attr unit b
vector 13 TsnLinearNetwork.client.bridging.streamIdentifier.identifier outgoingDataRate:vector ETV
attr interpolationmode linear
attr recordingmode vector
attr source "throughput(merge(packetPushedOut, packetPulledOut))"
attr title "outgoing data rate"
attr unit bps
vector 14 TsnLinearNetwork.client.bridging.streamIdentifier.identifier flowIncomingPacketLengths:vector ETV
attr interpolationmode none
attr recordingmode vector
attr source "packetLength(demuxFlow(merge(packetPushedIn, packetPulledIn)))"
attr title "flow specific incoming packet lengths"
attr unit b
vector 15 TsnLinearNetwork.client.bridging.streamIdentifier.identifier flowIncomingDataRate:vector ETV
attr interpolationmode linear
attr recordingmode vector
attr source "throughput(demuxFlow(merge(packetPushedIn, packetPulledIn)))"
attr title "flow specific incoming data rate"
attr unit bps
vector 16 TsnLinearNetwork.client.bridging.streamIdentifier.identifier flowOutgoingPacketLengths:vector ETV
attr interpolationmode none
attr recordingmode vector
attr source "packetLength(demuxFlow(merge(packetPushedOut, packetPulledOut)))"
attr title "flow specific outgoing packet lengths"
attr unit b
vector 17 TsnLinearNetwork.client.bridging.streamIdentifier.identifier flowOutgoingDataRate:vector ETV
attr interpolationmode linear
attr recordingmode vector
attr source "throughput(demuxFlow(merge(packetPushedOut, packetPulledOut)))"
attr title "flow specific outgoing data rate"
attr unit bps
vector 18 TsnLinearNetwork.client.bridging.streamCoder.decoder incomingPacketLengths:vector ETV
attr interpolationmode none
attr recordingmode vector
attr source "packetLength(merge(packetPushedIn, packetPulledIn))"
attr title "incoming packet lengths"
attr unit b
vector 19 TsnLinearNetwork.client.bridging.streamCoder.decoder incomingDataRate:vector ETV
attr interpolationmode linear
attr recordingmode vector
attr source "throughput(merge(packetPushedIn, packetPulledIn))"
attr title "incoming data rate"
attr unit bps
vector 20 TsnLinearNetwork.client.bridging.streamCoder.decoder outgoingPacketLengths:vector ETV
attr interpolationmode none
attr recordingmode vector
attr source "packetLength(merge(packetPushedOut, packetPulledOut))"
attr title "outgoing packet lengths"
attr unit b
vector 21 TsnLinearNetwork.client.bridging.streamCoder.decoder outgoingDataRate:vector ETV
attr interpolationmode linear
attr recordingmode vector
attr source "throughput(merge(packetPushedOut, packetPulledOut))"
attr title "outgoing data rate"
attr unit bps
vector 22 TsnLinearNetwork.client.bridging.streamCoder.decoder flowIncomingPacketLengths:vector ETV
attr interpolationmode none
attr recordingmode vector
attr source "packetLength(demuxFlow(merge(packetPushedIn, packetPulledIn)))"
attr title "flow specific incoming packet lengths"
attr unit b
vector 23 TsnLinearNetwork.client.bridging.streamCoder.decoder flowIncomingDataRate:vector ETV
attr interpolationmode linear
attr recordingmode vector
attr source "throughput(demuxFlow(merge(packetPushedIn, packetPulledIn)))"
attr title "flow specific incoming data rate"
attr unit bps
vector 24 TsnLinearNetwork.client.bridging.streamCoder.decoder flowOutgoingPacketLengths:vector ETV
attr interpolationmode none
attr recordingmode vector
attr source "packetLength(demuxFlow(merge(packetPushedOut, packetPulledOut)))"
attr title "flow specific outgoing packet lengths"
attr unit b
vector 25 TsnLinearNetwork.client.bridging.streamCoder.decoder flowOutgoingDataRate:vector ETV
attr interpolationmode linear
attr recordingmode vector
attr source "throughput(demuxFlow(merge(packetPushedOut, packetPulledOut)))"
attr title "flow specific outgoing data rate"
attr unit bps
vector 26 TsnLinearNetwork.client.bridging.streamCoder.encoder incomingPacketLengths:vector ETV
attr interpolationmode none
attr recordingmode vector
attr source "packetLength(merge(packetPushedIn, packetPulledIn))"
attr title "incoming packet lengths"
attr unit b
vector 27 TsnLinearNetwork.client.bridging.streamCoder.encoder incomingDataRate:vector ETV
attr interpolationmode linear
attr recordingmode vector
attr source "throughput(merge(packetPushedIn, packetPulledIn))"
attr title "incoming data rate"
attr unit bps
vector 28 TsnLinearNetwork.client.bridging.streamCoder.encoder outgoingPacketLengths:vector ETV
attr interpolationmode none
attr recordingmode vector
attr source "packetLength(merge(packetPushedOut, packetPulledOut))"
attr title "outgoing packet lengths"
attr unit b
vector 29 TsnLinearNetwork.client.bridging.streamCoder.encoder outgoingDataRate:vector ETV
attr interpolationmode linear
attr recordingmode vector
attr source "throughput(merge(packetPushedOut, packetPulledOut))"
attr title "outgoing data rate"
attr unit bps
vector 30 TsnLinearNetwork.client.bridging.streamCoder.encoder flowIncomingPacketLengths:vector ETV
attr interpolationmode none
attr recordingmode vector
attr source "packetLength(demuxFlow(merge(packetPushedIn, packetPulledIn)))"
attr title "flow specific incoming packet lengths"
attr unit b
vector 31 TsnLinearNetwork.client.bridging.streamCoder.encoder flowIncomingDataRate:vector ETV
attr interpolationmode linear
attr recordingmode vector
attr source "throughput(demuxFlow(merge(packetPushedIn, packetPulledIn)))"
attr title "flow specific incoming data rate"
attr unit bps
vector 32 TsnLinearNetwork.client.bridging.streamCoder.encoder flowOutgoingPacketLengths:vector ETV
attr interpolationmode none
attr recordingmode vector
attr source "packetLength(demuxFlow(merge(packetPushedOut, packetPulledOut)))"
attr title "flow specific outgoing packet lengths"
attr unit b
vector 33 TsnLinearNetwork.client.bridging.streamCoder.encoder flowOutgoingDataRate:vector ETV
attr interpolationmode linear
attr recordingmode vector
attr source "throughput(demuxFlow(merge(packetPushedOut, packetPulledOut)))"
attr title "flow specific outgoing data rate"
attr unit bps
vector 34 TsnLinearNetwork.client.ethernet.macHeaderInserter incomingPacketLengths:vector ETV
attr interpolationmode none
attr recordingmode vector
attr source "packetLength(merge(packetPushedIn, packetPulledIn))"
attr title "incoming packet lengths"
attr unit b
vector 35 TsnLinearNetwork.client.ethernet.macHeaderInserter incomingDataRate:vector ETV
attr interpolationmode linear
attr recordingmode vector
attr source "throughput(merge(packetPushedIn, packetPulledIn))"
attr title "incoming data rate"
attr unit bps
vector 36 TsnLinearNetwork.client.ethernet.macHeaderInserter outgoingPacketLengths:vector ETV
attr interpolationmode none
attr recordingmode vector
attr source "packetLength(merge(packetPushedOut, packetPulledOut))"
attr title "outgoing packet lengths"
attr unit b
vector 37 TsnLinearNetwork.client.ethernet.macHeaderInserter outgoingDataRate:vector ETV
attr interpolationmode linear
attr recordingmode vector
attr source "throughput(merge(packetPushedOut, packetPulledOut))"
attr title "outgoing data rate"
attr unit bps
vector 38 TsnLinearNetwork.client.ethernet.macHeaderInserter flowIncomingPacketLengths:vector ETV
attr interpolationmode none
attr recordingmode vector
attr source "packetLength(demuxFlow(merge(packetPushedIn, packetPulledIn)))"
attr title "flow specific incoming packet lengths"
attr unit b
vector 39 TsnLinearNetwork.client.ethernet.macHeaderInserter flowIncomingDataRate:vector ETV
attr interpolationmode linear
attr recordingmode vector
attr source "throughput(demuxFlow(merge(packetPushedIn, packetPulledIn)))"
attr title "flow specific incoming data rate"
attr unit bps
vector 40 TsnLinearNetwork.client.ethernet.macHeaderInserter flowOutgoingPacketLengths:vector ETV
attr interpolationmode none
attr recordingmode vector
attr source "packetLength(demuxFlow(merge(packetPushedOut, packetPulledOut)))"
attr title "flow specific outgoing packet lengths"
attr unit b
vector 41 TsnLinearNetwork.client.ethernet.macHeaderInserter flowOutgoingDataRate:vector ETV
attr interpolationmode linear
attr recordingmode vector
attr source "throughput(demuxFlow(merge(packetPushedOut, packetPulledOut)))"
attr title "flow specific outgoing data rate"
attr unit bps
vector 42 TsnLinearNetwork.client.ethernet.paddingInserter incomingPacketLengths:vector ETV
attr interpolationmode none
attr recordingmode vector
attr source "packetLength(merge(packetPushedIn, packetPulledIn))"
attr title "incoming packet lengths"
attr unit b
vector 43 TsnLinearNetwork.client.ethernet.paddingInserter incomingDataRate:vector ETV
attr interpolationmode linear
attr recordingmode vector
attr source "throughput(merge(packetPushedIn, packetPulledIn))"
attr title "incoming data rate"
attr unit bps
vector 44 TsnLinearNetwork.client.ethernet.paddingInserter outgoingPacketLengths:vector ETV
attr interpolationmode none
attr recordingmode vector
attr source "packetLength(merge(packetPushedOut, packetPulledOut))"
attr title "outgoing packet lengths"
attr unit b
vector 45 TsnLinearNetwork.client.ethernet.paddingInserter outgoingDataRate:vector ETV
attr interpolationmode linear
attr recordingmode vector
attr source "throughput(merge(packetPushedOut, packetPulledOut))"
attr title "outgoing data rate"
attr unit bps
vector 46 TsnLinearNetwork.client.ethernet.paddingInserter flowIncomingPacketLengths:vector ETV
attr interpolationmode none
attr recordingmode vector
attr source "packetLength(demuxFlow(merge(packetPushedIn, packetPulledIn)))"
attr title "flow specific incoming packet lengths"
attr unit b
vector 47 TsnLinearNetwork.client.ethernet.paddingInserter flowIncomingDataRate:vector ETV
attr interpolationmode linear
attr recordingmode vector
attr source "throughput(demuxFlow(merge(packetPushedIn, packetPulledIn)))"
attr title "flow specific incoming data rate"
attr unit bps
vector 48 TsnLinearNetwork.client.ethernet.paddingInserter flowOutgoingPacketLengths:vector ETV
attr interpolationmode none
attr recordingmode vector
attr source "packetLength(demuxFlow(merge(packetPushedOut, packetPulledOut)))"
attr title "flow specific outgoing packet lengths"
attr unit b
vector 49 TsnLinearNetwork.client.ethernet.paddingInserter flowOutgoingDataRate:vector ETV
attr interpolationmode linear
attr recordingmode vector
attr source "throughput(demuxFlow(merge(packetPushedOut, packetPulledOut)))"
attr title "flow specific outgoing data rate"
attr unit bps
vector 50 TsnLinearNetwork.client.ethernet.fcsInserter incomingPacketLengths:vector ETV
attr interpolationmode none
attr recordingmode vector
attr source "packetLength(merge(packetPushedIn, packetPulledIn))"
attr title "incoming packet lengths"
attr unit b
vector 51 TsnLinearNetwork.client.ethernet.fcsInserter incomingDataRate:vector ETV
attr interpolationmode linear
attr recordingmode vector
attr source "throughput(merge(packetPushedIn, packetPulledIn))"
attr title "incoming data rate"
attr unit bps
vector 52 TsnLinearNetwork.client.ethernet.fcsInserter outgoingPacketLengths:vector ETV
attr interpolationmode none
attr recordingmode vector
attr source "packetLength(merge(packetPushedOut, packetPulledOut))"
attr title "outgoing packet lengths"
attr unit b
vector 53 TsnLinearNetwork.client.ethernet.fcsInserter outgoingDataRate:vector ETV
attr interpolationmode linear
attr recordingmode vector
attr source "throughput(merge(packetPushedOut, packetPulledOut))"
attr title "outgoing data rate"
attr unit bps
vector 54 TsnLinearNetwork.client.ethernet.fcsInserter flowIncomingPacketLengths:vector ETV
attr interpolationmode none
attr recordingmode vector
attr source "packetLength(demuxFlow(merge(packetPushedIn, packetPulledIn)))"
attr title "flow specific incoming packet lengths"
attr unit b
vector 55 TsnLinearNetwork.client.ethernet.fcsInserter flowIncomingDataRate:vector ETV
attr interpolationmode linear
attr recordingmode vector
attr source "throughput(demuxFlow(merge(packetPushedIn, packetPulledIn)))"
attr title "flow specific incoming data rate"
attr unit bps
vector 56 TsnLinearNetwork.client.ethernet.fcsInserter flowOutgoingPacketLengths:vector ETV
attr interpolationmode none
attr recordingmode vector
attr source "packetLength(demuxFlow(merge(packetPushedOut, packetPulledOut)))"
attr title "flow specific outgoing packet lengths"
attr unit b
vector 57 TsnLinearNetwork.client.ethernet.fcsInserter flowOutgoingDataRate:vector ETV
attr interpolationmode linear
attr recordingmode vector
attr source "throughput(demuxFlow(merge(packetPushedOut, packetPulledOut)))"
attr title "flow specific outgoing data rate"
attr unit bps
vector 58 TsnLinearNetwork.client.ethernet.macHeaderChecker incomingPacketLengths:vector ETV
attr interpolationmode none
attr recordingmode vector
attr source "packetLength(merge(packetPushedIn, packetPulledIn))"
attr title "incoming packet lengths"
attr unit b
vector 59 TsnLinearNetwork.client.ethernet.macHeaderChecker incomingDataRate:vector ETV
attr interpolationmode linear
attr recordingmode vector
attr source "throughput(merge(packetPushedIn, packetPulledIn))"
attr title "incoming data rate"
attr unit bps
vector 60 TsnLinearNetwork.client.ethernet.macHeaderChecker outgoingPacketLengths:vector ETV
attr interpolationmode none
attr recordingmode vector
attr source "packetLength(merge(packetPushedOut, packetPulledOut))"
attr title "outgoing packet lengths"
attr unit b
vector 61 TsnLinearNetwork.client.ethernet.macHeaderChecker outgoingDataRate:vector ETV
attr interpolationmode linear
attr recordingmode vector
attr source "throughput(merge(packetPushedOut, packetPulledOut))"
attr title "outgoing data rate"
attr unit bps
vector 62 TsnLinearNetwork.client.ethernet.macHeaderChecker droppedPacketLengths:vector ETV
attr interpolationmode none
attr recordingmode vector
attr source packetLength(packetDropped)
attr title "dropped packet lengths"
attr unit b
vector 63 TsnLinearNetwork.client.ethernet.macHeaderChecker droppedDataRate:vector ETV
attr interpolationmode linear
attr recordingmode vector
attr source throughput(packetDropped)
attr title "dropped data rate"
attr unit bps
vector 64 TsnLinearNetwork.client.ethernet.macHeaderChecker flowIncomingPacketLengths:vector ETV
attr interpolationmode none
attr recordingmode vector
attr source "packetLength(demuxFlow(merge(packetPushedIn, packetPulledIn)))"
attr title "flow specific incoming packet lengths"
attr unit b
vector 65 TsnLinearNetwork.client.ethernet.macHeaderChecker flowIncomingDataRate:vector ETV
attr interpolationmode linear
attr recordingmode vector
attr source "throughput(demuxFlow(merge(packetPushedIn, packetPulledIn)))"
attr title "flow specific incoming data rate"
attr unit bps
vector 66 TsnLinearNetwork.client.ethernet.macHeaderChecker flowOutgoingPacketLengths:vector ETV
attr interpolationmode none
attr recordingmode vector
attr source "packetLength(demuxFlow(merge(packetPushedOut, packetPulledOut)))"
attr title "flow specific outgoing packet lengths"
attr unit b
vector 67 TsnLinearNetwork.client.ethernet.macHeaderChecker flowOutgoingDataRate:vector ETV
attr interpolationmode linear
attr recordingmode vector
attr source "throughput(demuxFlow(merge(packetPushedOut, packetPulledOut)))"
attr title "flow specific outgoing data rate"
attr unit bps
vector 68 TsnLinearNetwork.client.ethernet.macHeaderChecker flowDroppedPacketLengths:vector ETV
attr interpolationmode none
attr recordingmode vector
attr source packetLength(demuxFlow(packetDropped))
attr title "flow specific dropped packet lengths"
attr unit b
vector 69 TsnLinearNetwork.client.ethernet.macHeaderChecker flowDroppedDataRate:vector ETV
attr interpolationmode linear
attr recordingmode vector
attr source throughput(demuxFlow(packetDropped))
attr title "flow specific dropped data rate"
attr unit bps
vector 70 TsnLinearNetwork.client.ethernet.fcsChecker incomingPacketLengths:vector ETV
attr interpolationmode none
attr recordingmode vector
attr source "packetLength(merge(packetPushedIn, packetPulledIn))"
attr title "incoming packet lengths"
attr unit b
vector 71 TsnLinearNetwork.client.ethernet.fcsChecker incomingDataRate:vector ETV
attr interpolationmode linear
attr recordingmode vector
attr source "throughput(merge(packetPushedIn, packetPulledIn))"
attr title "incoming data rate"
attr unit bps
vector 72 TsnLinearNetwork.client.ethernet.fcsChecker outgoingPacketLengths:vector ETV
attr interpolationmode none
attr recordingmode vector
attr source "packetLength(merge(packetPushedOut, packetPulledOut))"
attr title "outgoing packet lengths"
attr unit b
vector 73 TsnLinearNetwork.client.ethernet.fcsChecker outgoingDataRate:vector ETV
attr interpolationmode linear
attr recordingmode vector
attr source "throughput(merge(packetPushedOut, packetPulledOut))"
attr title "outgoing data rate"
attr unit bps
vector 74 TsnLinearNetwork.client.ethernet.fcsChecker droppedPacketLengths:vector ETV
attr interpolationmode none
attr recordingmode vector
attr source packetLength(packetDropped)
attr title "dropped packet lengths"
attr unit b
vector 75 TsnLinearNetwork.client.ethernet.fcsChecker droppedDataRate:vector ETV
attr interpolationmode linear
attr recordingmode vector
attr source throughput(packetDropped)
attr title "dropped data rate"
attr unit bps
vector 76 TsnLinearNetwork.client.ethernet.fcsChecker flowIncomingPacketLengths:vector ETV
attr interpolationmode none
attr recordingmode vector
attr source "packetLength(demuxFlow(merge(packetPushedIn, packetPulledIn)))"
attr title "flow specific incoming packet lengths"
attr unit b
vector 77 TsnLinearNetwork.client.ethernet.fcsChecker flowIncomingDataRate:vector ETV
attr interpolationmode linear
attr recordingmode vector
attr source "throughput(demuxFlow(merge(packetPushedIn, packetPulledIn)))"
attr title "flow specific incoming data rate"
attr unit bps
vector 78 TsnLinearNetwork.client.ethernet.fcsChecker flowOutgoingPacketLengths:vector ETV
attr interpolationmode none
attr recordingmode vector
attr source "packetLength(demuxFlow(merge(packetPushedOut, packetPulledOut)))"
attr title "flow specific outgoing packet lengths"
attr unit b
vector 79 TsnLinearNetwork.client.ethernet.fcsChecker flowOutgoingDataRate:vector ETV
attr interpolationmode linear
attr recordingmode vector
attr source "throughput(demuxFlow(merge(packetPushedOut, packetPulledOut)))"
attr title "flow specific outgoing data rate"
attr unit bps
vector 80 TsnLinearNetwork.client.ethernet.fcsChecker flowDroppedPacketLengths:vector ETV
attr interpolationmode none
attr recordingmode vector
attr source packetLength(demuxFlow(packetDropped))
attr title "flow specific dropped packet lengths"
attr unit b
vector 81 TsnLinearNetwork.client.ethernet.fcsChecker flowDroppedDataRate:vector ETV
attr interpolationmode linear
attr recordingmode vector
attr source throughput(demuxFlow(packetDropped))
attr title "flow specific dropped data rate"
attr unit bps
vector 82 TsnLinearNetwork.client.ieee8021q.qTagHeaderInserter incomingPacketLengths:vector ETV
attr interpolationmode none
attr recordingmode vector
attr source "packetLength(merge(packetPushedIn, packetPulledIn))"
attr title "incoming packet lengths"
attr unit b
vector 83 TsnLinearNetwork.client.ieee8021q.qTagHeaderInserter incomingDataRate:vector ETV
attr interpolationmode linear
attr recordingmode vector
attr source "throughput(merge(packetPushedIn, packetPulledIn))"
attr title "incoming data rate"
attr unit bps
vector 84 TsnLinearNetwork.client.ieee8021q.qTagHeaderInserter outgoingPacketLengths:vector ETV
attr interpolationmode none
attr recordingmode vector
attr source "packetLength(merge(packetPushedOut, packetPulledOut))"
attr title "outgoing packet lengths"
attr unit b
vector 85 TsnLinearNetwork.client.ieee8021q.qTagHeaderInserter outgoingDataRate:vector ETV
attr interpolationmode linear
attr recordingmode vector
attr source "throughput(merge(packetPushedOut, packetPulledOut))"
attr title "outgoing data rate"
attr unit bps
vector 86 TsnLinearNetwork.client.ieee8021q.qTagHeaderInserter flowIncomingPacketLengths:vector ETV
attr interpolationmode none
attr recordingmode vector
attr source "packetLength(demuxFlow(merge(packetPushedIn, packetPulledIn)))"
attr title "flow specific incoming packet lengths"
attr unit b
vector 87 TsnLinearNetwork.client.ieee8021q.qTagHeaderInserter flowIncomingDataRate:vector ETV
attr interpolationmode linear
attr recordingmode vector
attr source "throughput(demuxFlow(merge(packetPushedIn, packetPulledIn)))"
attr title "flow specific incoming data rate"
attr unit bps
vector 88 TsnLinearNetwork.client.ieee8021q.qTagHeaderInserter flowOutgoingPacketLengths:vector ETV
attr interpolationmode none
attr recordingmode vector
attr source "packetLength(demuxFlow(merge(packetPushedOut, packetPulledOut)))"
attr title "flow specific outgoing packet lengths"
attr unit b
vector 89 TsnLinearNetwork.client.ieee8021q.qTagHeaderInserter flowOutgoingDataRate:vector ETV
attr interpolationmode linear
attr recordingmode vector
attr source "throughput(demuxFlow(merge(packetPushedOut, packetPulledOut)))"
attr title "flow specific outgoing data rate"
attr unit bps
vector 90 TsnLinearNetwork.client.ieee8021q.qTagHeaderChecker incomingPacketLengths:vector ETV
attr interpolationmode none
attr recordingmode vector
attr source "packetLength(merge(packetPushedIn, packetPulledIn))"
attr title "incoming packet lengths"
attr unit b
vector 91 TsnLinearNetwork.client.ieee8021q.qTagHeaderChecker incomingDataRate:vector ETV
attr interpolationmode linear
attr recordingmode vector
attr source "throughput(merge(packetPushedIn, packetPulledIn))"
attr title "incoming data rate"
attr unit bps
vector 92 TsnLinearNetwork.client.ieee8021q.qTagHeaderChecker outgoingPacketLengths:vector ETV
attr interpolationmode none
attr recordingmode vector
attr source "packetLength(merge(packetPushedOut, packetPulledOut))"
attr title "outgoing packet lengths"
attr unit b
vector 93 TsnLinearNetwork.client.ieee8021q.qTagHeaderChecker outgoingDataRate:vector ETV
attr interpolationmode linear
attr recordingmode vector
attr source "throughput(merge(packetPushedOut, packetPulledOut))"
attr title "outgoing data rate"
attr unit bps
vector 94 TsnLinearNetwork.client.ieee8021q.qTagHeaderChecker droppedPacketLengths:vector ETV
attr interpolationmode none
attr recordingmode vector
attr source packetLength(packetDropped)
attr title "dropped packet lengths"
attr unit b
vector 95 TsnLinearNetwork.client.ieee8021q.qTagHeaderChecker droppedDataRate:vector ETV
attr interpolationmode linear
attr recordingmode vector
attr source throughput(packetDropped)
attr title "dropped data rate"
attr unit bps
vector 96 TsnLinearNetwork.client.ieee8021q.qTagHeaderChecker flowIncomingPacketLengths:vector ETV
attr interpolationmode none
attr recordingmode vector
attr source "packetLength(demuxFlow(merge(packetPushedIn, packetPulledIn)))"
attr title "flow specific incoming packet lengths"
attr unit b
vector 97 TsnLinearNetwork.client.ieee8021q.qTagHeaderChecker flowIncomingDataRate:vector ETV
attr interpolationmode linear
attr recordingmode vector
attr source "throughput(demuxFlow(merge(packetPushedIn, packetPulledIn)))"
attr title "flow specific incoming data rate"
attr unit bps
vector 98 TsnLinearNetwork.client.ieee8021q.qTagHeaderChecker flowOutgoingPacketLengths:vector ETV
attr interpolationmode none
attr recordingmode vector
attr source "packetLength(demuxFlow(merge(packetPushedOut, packetPulledOut)))"
attr title "flow specific outgoing packet lengths"
attr unit b
vector 99 TsnLinearNetwork.client.ieee8021q.qTagHeaderChecker flowOutgoingDataRate:vector ETV
attr interpolationmode linear
attr recordingmode vector
attr source "throughput(demuxFlow(merge(packetPushedOut, packetPulledOut)))"
attr title "flow specific outgoing data rate"
attr unit bps
vector 100 TsnLinearNetwork.client.ieee8021q.qTagHeaderChecker flowDroppedPacketLengths:vector ETV
attr interpolationmode none
attr recordingmode vector
attr source packetLength(demuxFlow(packetDropped))
attr title "flow specific dropped packet lengths"
attr unit b
vector 101 TsnLinearNetwork.client.ieee8021q.qTagHeaderChecker flowDroppedDataRate:vector ETV
attr interpolationmode linear
attr recordingmode vector
attr source throughput(demuxFlow(packetDropped))
attr title "flow specific dropped data rate"
attr unit bps
vector 102 TsnLinearNetwork.client.lo[0].lo rcvdPkFromHl:vector(packetBytes) ETV
attr interpolationmode none
attr recordingmode vector(packetBytes)
attr source packetReceivedFromUpper
attr title "packets received from higher layer, packetBytes"
vector 103 TsnLinearNetwork.client.lo[0].lo passedUpPk:vector(packetBytes) ETV
attr interpolationmode none
attr recordingmode vector(packetBytes)
attr source packetSentToUpper
attr title "packets passed to higher layer, packetBytes"
vector 104 TsnLinearNetwork.client.lo[0] packetDropInterfaceDown:vector(packetBytes) ETV
attr interpolationmode none
attr recordingmode vector(packetBytes)
attr source packetDropReasonIsInterfaceDown(packetDropped)
attr title "packet drops: interface down, packetBytes"
vector 105 TsnLinearNetwork.client.lo[0] packetDropNoCarrier:vector(packetBytes) ETV
attr interpolationmode none
attr recordingmode vector(packetBytes)
attr source packetDropReasonIsNoCarrier(packetDropped)
attr title "packet drops: no carrier, packetBytes"
vector 106 TsnLinearNetwork.client.eth[0].macLayer.queue queueLength:vector ETV
attr autoWarmupFilter false
attr interpolationmode sample-hold
attr recordingmode vector
attr source "warmup(atomic(constant0(packetPushEnded) + count(packetPushStarted) - count(packetPulled) - count(packetRemoved) - count(packetDropped)))"
attr title "queue length"
attr unit pk
vector 107 TsnLinearNetwork.client.eth[0].macLayer.queue queueBitLength:vector ETV
attr autoWarmupFilter false
attr interpolationmode sample-hold
attr recordingmode vector
attr source "warmup(atomic(constant0(packetPushEnded) + sum(packetLength(packetPushStarted)) - sum(packetLength(packetPulled)) - sum(packetLength(packetRemoved)) - sum(packetLength(packetDropped))))"
attr title "queue bit length"
attr unit b
vector 108 TsnLinearNetwork.client.eth[0].macLayer.queue queueingTime:vector ETV
attr interpolationmode none
attr recordingmode vector
attr source queueingTime(packetPulled)
attr title "queueing times"
attr unit s
vector 109 TsnLinearNetwork.client.eth[0].macLayer.queue incomingPacketLengths:vector ETV
attr interpolationmode none
attr recordingmode vector
attr source packetLength(packetPushStarted)
attr title "incoming packet lengths"
attr unit b
vector 110 TsnLinearNetwork.client.eth[0].macLayer.queue incomingDataRate:vector ETV
attr interpolationmode linear
attr recordingmode vector
attr source throughput(packetPushStarted)
attr title "incoming datarate"
attr unit bps
vector 111 TsnLinearNetwork.client.eth[0].macLayer.queue outgoingPacketLengths:vector ETV
attr interpolationmode none
attr recordingmode vector
attr source packetLength(packetPulled)
attr title "outgoing packet lengths"
attr unit b
vector 112 TsnLinearNetwork.client.eth[0].macLayer.queue outgoingDataRate:vector ETV
attr interpolationmode linear
attr recordingmode vector
attr source throughput(packetPulled)
attr title "outgoing datarate"
attr unit bps
vector 113 TsnLinearNetwork.client.eth[0].macLayer.queue droppedPacketLengthsQueueOverflow:vector ETV
attr interpolationmode none
attr recordingmode vector
attr source packetLength(packetDropReasonIsQueueOverflow(packetDropped))
attr title "dropped packet lengths: queue overflow"
attr unit b
vector 114 TsnLinearNetwork.client.eth[0].macLayer.queue flowQueueingTime:vector ETV
attr interpolationmode none
attr recordingmode vector
attr source queueingTime(demuxFlow(packetPulled))
attr title "flow queueing times"
attr unit s
vector 115 TsnLinearNetwork.client.eth[0].macLayer.queue flowIncomingDataRate:vector ETV
attr interpolationmode linear
attr recordingmode vector
attr source throughput(flowPacketLength(demuxFlow(packetPushStarted)))
attr title "flow specific incoming data rate"
attr unit bps
vector 116 TsnLinearNetwork.client.eth[0].macLayer.queue flowOutgoingDataRate:vector ETV
attr interpolationmode linear
attr recordingmode vector
attr source throughput(flowPacketLength(demuxFlow(packetPulled)))
attr title "flow specific outgoing data rate"
attr unit bps
vector 117 TsnLinearNetwork.client.eth[0].macLayer.server incomingPacketLengths:vector ETV
attr interpolationmode none
attr recordingmode vector
attr source packetLength(packetPulled)
attr title "incoming packet lengths"
attr unit b
vector 118 TsnLinearNetwork.client.eth[0].macLayer.server incomingDataRate:vector ETV
attr interpolationmode linear
attr recordingmode vector
attr source throughput(packetPulled)
attr title "incoming datarate"
attr unit bps
vector 119 TsnLinearNetwork.client.eth[0].macLayer.server outgoingPacketLengths:vector ETV
attr interpolationmode none
attr recordingmode vector
attr source packetLength(packetPushed)
attr title "outgoing packet lengths"
attr unit b
vector 120 TsnLinearNetwork.client.eth[0].macLayer.server outgoingDataRate:vector ETV
attr interpolationmode linear
attr recordingmode vector
attr source throughput(packetPushed)
attr title "outgoing datarate"
attr unit bps
vector 121 TsnLinearNetwork.client.eth[0].macLayer.outboundEmitter incomingPacketLengths:vector ETV
attr interpolationmode none
attr recordingmode vector
attr source "packetLength(merge(packetPushedIn, packetPulledIn))"
attr title "incoming packet lengths"
attr unit b
vector 122 TsnLinearNetwork.client.eth[0].macLayer.outboundEmitter incomingDataRate:vector ETV
attr interpolationmode linear
attr recordingmode vector
attr source "throughput(merge(packetPushedIn, packetPulledIn))"
attr title "incoming data rate"
attr unit bps
vector 123 TsnLinearNetwork.client.eth[0].macLayer.outboundEmitter outgoingPacketLengths:vector ETV
attr interpolationmode none
attr recordingmode vector
attr source "packetLength(merge(packetPushedOut, packetPulledOut))"
attr title "outgoing packet lengths"
attr unit b
vector 124 TsnLinearNetwork.client.eth[0].macLayer.outboundEmitter outgoingDataRate:vector ETV
attr interpolationmode linear
attr recordingmode vector
attr source "throughput(merge(packetPushedOut, packetPulledOut))"
attr title "outgoing data rate"
attr unit bps
vector 125 TsnLinearNetwork.client.eth[0].macLayer.outboundEmitter flowIncomingPacketLengths:vector ETV
attr interpolationmode none
attr recordingmode vector
attr source "packetLength(demuxFlow(merge(packetPushedIn, packetPulledIn)))"
attr title "flow specific incoming packet lengths"
attr unit b
vector 126 TsnLinearNetwork.client.eth[0].macLayer.outboundEmitter flowIncomingDataRate:vector ETV
attr interpolationmode linear
attr recordingmode vector
attr source "throughput(demuxFlow(merge(packetPushedIn, packetPulledIn)))"
attr title "flow specific incoming data rate"
attr unit bps
vector 127 TsnLinearNetwork.client.eth[0].macLayer.outboundEmitter flowOutgoingPacketLengths:vector ETV
attr interpolationmode none
attr recordingmode vector
attr source "packetLength(demuxFlow(merge(packetPushedOut, packetPulledOut)))"
attr title "flow specific outgoing packet lengths"
attr unit b
vector 128 TsnLinearNetwork.client.eth[0].macLayer.outboundEmitter flowOutgoingDataRate:vector ETV
attr interpolationmode linear
attr recordingmode vector
attr source "throughput(demuxFlow(merge(packetPushedOut, packetPulledOut)))"
attr title "flow specific outgoing data rate"
attr unit bps
vector 129 TsnLinearNetwork.client.eth[0].macLayer.fcsChecker incomingPacketLengths:vector ETV
attr interpolationmode none
attr recordingmode vector
attr source "packetLength(merge(packetPushedIn, packetPulledIn))"
attr title "incoming packet lengths"
attr unit b
vector 130 TsnLinearNetwork.client.eth[0].macLayer.fcsChecker incomingDataRate:vector ETV
attr interpolationmode linear
attr recordingmode vector
attr source "throughput(merge(packetPushedIn, packetPulledIn))"
attr title "incoming data rate"
attr unit bps
vector 131 TsnLinearNetwork.client.eth[0].macLayer.fcsChecker outgoingPacketLengths:vector ETV
attr interpolationmode none
attr recordingmode vector
attr source "packetLength(merge(packetPushedOut, packetPulledOut))"
attr title "outgoing packet lengths"
attr unit b
vector 132 TsnLinearNetwork.client.eth[0].macLayer.fcsChecker outgoingDataRate:vector ETV
attr interpolationmode linear
attr recordingmode vector
attr source "throughput(merge(packetPushedOut, packetPulledOut))"
attr title "outgoing data rate"
attr unit bps
vector 133 TsnLinearNetwork.client.eth[0].macLayer.fcsChecker droppedPacketLengths:vector ETV
attr interpolationmode none
attr recordingmode vector
attr source packetLength(packetDropped)
attr title "dropped packet lengths"
attr unit b
vector 134 TsnLinearNetwork.client.eth[0].macLayer.fcsChecker droppedDataRate:vector ETV
attr interpolationmode linear
attr recordingmode vector
attr source throughput(packetDropped)
attr title "dropped data rate"
attr unit bps
vector 135 TsnLinearNetwork.client.eth[0].macLayer.fcsChecker flowIncomingPacketLengths:vector ETV
attr interpolationmode none
attr recordingmode vector
attr source "packetLength(demuxFlow(merge(packetPushedIn, packetPulledIn)))"
attr title "flow specific incoming packet lengths"
attr unit b
vector 136 TsnLinearNetwork.client.eth[0].macLayer.fcsChecker flowIncomingDataRate:vector ETV
attr interpolationmode linear
attr recordingmode vector
attr source "throughput(demuxFlow(merge(packetPushedIn, packetPulledIn)))"
attr title "flow specific incoming data rate"
attr unit bps
vector 137 TsnLinearNetwork.client.eth[0].macLayer.fcsChecker flowOutgoingPacketLengths:vector ETV
attr interpolationmode none
attr recordingmode vector
attr source "packetLength(demuxFlow(merge(packetPushedOut, packetPulledOut)))"
attr title "flow specific outgoing packet lengths"
attr unit b
vector 138 TsnLinearNetwork.client.eth[0].macLayer.fcsChecker flowOutgoingDataRate:vector ETV
attr interpolationmode linear
attr recordingmode vector
attr source "throughput(demuxFlow(merge(packetPushedOut, packetPulledOut)))"
attr title "flow specific outgoing data rate"
attr unit bps
vector 139 TsnLinearNetwork.client.eth[0].macLayer.fcsChecker flowDroppedPacketLengths:vector ETV
attr interpolationmode none
attr recordingmode vector
attr source packetLength(demuxFlow(packetDropped))
attr title "flow specific dropped packet lengths"
attr unit b
vector 140 TsnLinearNetwork.client.eth[0].macLayer.fcsChecker flowDroppedDataRate:vector ETV
attr interpolationmode linear
attr recordingmode vector
attr source throughput(demuxFlow(packetDropped))
attr title "flow specific dropped data rate"
attr unit bps
vector 141 TsnLinearNetwork.client.eth[0].macLayer.inboundEmitter incomingPacketLengths:vector ETV
attr interpolationmode none
attr recordingmode vector
attr source "packetLength(merge(packetPushedIn, packetPulledIn))"
attr title "incoming packet lengths"
attr unit b
vector 142 TsnLinearNetwork.client.eth[0].macLayer.inboundEmitter incomingDataRate:vector ETV
attr interpolationmode linear
attr recordingmode vector
attr source "throughput(merge(packetPushedIn, packetPulledIn))"
attr title "incoming data rate"
attr unit bps
vector 143 TsnLinearNetwork.client.eth[0].macLayer.inboundEmitter outgoingPacketLengths:vector ETV
attr interpolationmode none
attr recordingmode vector
attr source "packetLength(merge(packetPushedOut, packetPulledOut))"
attr title "outgoing packet lengths"
attr unit b
vector 144 TsnLinearNetwork.client.eth[0].macLayer.inboundEmitter outgoingDataRate:vector ETV
attr interpolationmode linear
attr recordingmode vector
attr source "throughput(merge(packetPushedOut, packetPulledOut))"
attr title "outgoing data rate"
attr unit bps
vector 145 TsnLinearNetwork.client.eth[0].macLayer.inboundEmitter flowIncomingPacketLengths:vector ETV
attr interpolationmode none
attr recordingmode vector
attr source "packetLength(demuxFlow(merge(packetPushedIn, packetPulledIn)))"
attr title "flow specific incoming packet lengths"
attr unit b
vector 146 TsnLinearNetwork.client.eth[0].macLayer.inboundEmitter flowIncomingDataRate:vector ETV
attr interpolationmode linear
attr recordingmode vector
attr source "throughput(demuxFlow(merge(packetPushedIn, packetPulledIn)))"
attr title "flow specific incoming data rate"
attr unit bps
vector 147 TsnLinearNetwork.client.eth[0].macLayer.inboundEmitter flowOutgoingPacketLengths:vector ETV
attr interpolationmode none
attr recordingmode vector
attr source "packetLength(demuxFlow(merge(packetPushedOut, packetPulledOut)))"
attr title "flow specific outgoing packet lengths"
attr unit b
vector 148 TsnLinearNetwork.client.eth[0].macLayer.inboundEmitter flowOutgoingDataRate:vector ETV
attr interpolationmode linear
attr recordingmode vector
attr source "throughput(demuxFlow(merge(packetPushedOut, packetPulledOut)))"
attr title "flow specific outgoing data rate"
attr unit bps
vector 149 TsnLinearNetwork.client.eth[0].phyLayer.phyHeaderInserter incomingPacketLengths:vector ETV
attr interpolationmode none
attr recordingmode vector
attr source "packetLength(merge(packetPushedIn, packetPulledIn))"
attr title "incoming packet lengths"
attr unit b
vector 150 TsnLinearNetwork.client.eth[0].phyLayer.phyHeaderInserter incomingDataRate:vector ETV
attr interpolationmode linear
attr recordingmode vector
attr source "throughput(merge(packetPushedIn, packetPulledIn))"
attr title "incoming data rate"
attr unit bps
vector 151 TsnLinearNetwork.client.eth[0].phyLayer.phyHeaderInserter outgoingPacketLengths:vector ETV
attr interpolationmode none
attr recordingmode vector
attr source "packetLength(merge(packetPushedOut, packetPulledOut))"
attr title "outgoing packet lengths"
attr unit b
vector 152 TsnLinearNetwork.client.eth[0].phyLayer.phyHeaderInserter outgoingDataRate:vector ETV
attr interpolationmode linear
attr recordingmode vector
attr source "throughput(merge(packetPushedOut, packetPulledOut))"
attr title "outgoing data rate"
attr unit bps
vector 153 TsnLinearNetwork.client.eth[0].phyLayer.phyHeaderInserter flowIncomingPacketLengths:vector ETV
attr interpolationmode none
attr recordingmode vector
attr source "packetLength(demuxFlow(merge(packetPushedIn, packetPulledIn)))"
attr title "flow specific incoming packet lengths"
attr unit b
vector 154 TsnLinearNetwork.client.eth[0].phyLayer.phyHeaderInserter flowIncomingDataRate:vector ETV
attr interpolationmode linear
attr recordingmode vector
attr source "throughput(demuxFlow(merge(packetPushedIn, packetPulledIn)))"
attr title "flow specific incoming data rate"
attr unit bps
vector 155 TsnLinearNetwork.client.eth[0].phyLayer.phyHeaderInserter flowOutgoingPacketLengths:vector ETV
attr interpolationmode none
attr recordingmode vector
attr source "packetLength(demuxFlow(merge(packetPushedOut, packetPulledOut)))"
attr title "flow specific outgoing packet lengths"
attr unit b
vector 156 TsnLinearNetwork.client.eth[0].phyLayer.phyHeaderInserter flowOutgoingDataRate:vector ETV
attr interpolationmode linear
attr recordingmode vector
attr source "throughput(demuxFlow(merge(packetPushedOut, packetPulledOut)))"
attr title "flow specific outgoing data rate"
attr unit bps
vector 157 TsnLinearNetwork.client.eth[0].phyLayer.interFrameGapInserter interpacketGap:vector ETV
attr interpolationmode sample-hold
attr recordingmode vector
attr source "count(interpacketGapStarted) - count(interpacketGapEnded)"
attr title "interpacket gap state"
attr type int
vector 158 TsnLinearNetwork.client.eth[0].phyLayer.outboundEmitter incomingPacketLengths:vector ETV
attr interpolationmode none
attr recordingmode vector
attr source "packetLength(merge(packetPushedIn, packetPulledIn))"
attr title "incoming packet lengths"
attr unit b
vector 159 TsnLinearNetwork.client.eth[0].phyLayer.outboundEmitter incomingDataRate:vector ETV
attr interpolationmode linear
attr recordingmode vector
attr source "throughput(merge(packetPushedIn, packetPulledIn))"
attr title "incoming data rate"
attr unit bps
vector 160 TsnLinearNetwork.client.eth[0].phyLayer.outboundEmitter outgoingPacketLengths:vector ETV
attr interpolationmode none
attr recordingmode vector
attr source "packetLength(merge(packetPushedOut, packetPulledOut))"
attr title "outgoing packet lengths"
attr unit b
vector 161 TsnLinearNetwork.client.eth[0].phyLayer.outboundEmitter outgoingDataRate:vector ETV
attr interpolationmode linear
attr recordingmode vector
attr source "throughput(merge(packetPushedOut, packetPulledOut))"
attr title "outgoing data rate"
attr unit bps
vector 162 TsnLinearNetwork.client.eth[0].phyLayer.outboundEmitter flowIncomingPacketLengths:vector ETV
attr interpolationmode none
attr recordingmode vector
attr source "packetLength(demuxFlow(merge(packetPushedIn, packetPulledIn)))"
attr title "flow specific incoming packet lengths"
attr unit b
vector 163 TsnLinearNetwork.client.eth[0].phyLayer.outboundEmitter flowIncomingDataRate:vector ETV
attr interpolationmode linear
attr recordingmode vector
attr source "throughput(demuxFlow(merge(packetPushedIn, packetPulledIn)))"
attr title "flow specific incoming data rate"
attr unit bps
vector 164 TsnLinearNetwork.client.eth[0].phyLayer.outboundEmitter flowOutgoingPacketLengths:vector ETV
attr interpolationmode none
attr recordingmode vector
attr source "packetLength(demuxFlow(merge(packetPushedOut, packetPulledOut)))"
attr title "flow specific outgoing packet lengths"
attr unit b
vector 165 TsnLinearNetwork.client.eth[0].phyLayer.outboundEmitter flowOutgoingDataRate:vector ETV
attr interpolationmode linear
attr recordingmode vector
attr source "throughput(demuxFlow(merge(packetPushedOut, packetPulledOut)))"
attr title "flow specific outgoing data rate"
attr unit bps
vector 166 TsnLinearNetwork.client.eth[0].phyLayer.transmitter transmitting:vector ETV
attr enum IDLE,TRANSMITTING
attr interpolationmode sample-hold
attr recordingmode vector
attr source "count(transmissionStarted) - count(transmissionEnded)"
attr title "transmitting state"
attr type enum
vector 167 TsnLinearNetwork.client.eth[0].phyLayer.transmitter throughput:vector ETV
attr interpolationmode linear
attr recordingmode vector
attr source throughput(transmissionEnded)
attr title throughput
attr unit bps
vector 168 TsnLinearNetwork.client.eth[0].phyLayer.transmitter utilization:vector ETV
attr interpolationmode linear
attr recordingmode vector
attr source "100 * utilization(count(transmissionStarted) - count(transmissionEnded))"
attr title utilization
attr unit %
vector 169 TsnLinearNetwork.client.eth[0].phyLayer.transmitter transmissionTime:vector ETV
attr interpolationmode none
attr recordingmode vector
attr source packetDuration(transmissionEnded)
attr title "transmission time"
attr unit s
vector 170 TsnLinearNetwork.client.eth[0].phyLayer.transmitter flowTransmissionTime:vector ETV
attr interpolationmode none
attr recordingmode vector
attr source packetDuration(demuxFlow(transmissionEnded))
attr title "flow transmission time"
attr unit s
vector 171 TsnLinearNetwork.client.eth[0].phyLayer.phyHeaderChecker incomingPacketLengths:vector ETV
attr interpolationmode none
attr recordingmode vector
attr source "packetLength(merge(packetPushedIn, packetPulledIn))"
attr title "incoming packet lengths"
attr unit b
vector 172 TsnLinearNetwork.client.eth[0].phyLayer.phyHeaderChecker incomingDataRate:vector ETV
attr interpolationmode linear
attr recordingmode vector
attr source "throughput(merge(packetPushedIn, packetPulledIn))"
attr title "incoming data rate"
attr unit bps
vector 173 TsnLinearNetwork.client.eth[0].phyLayer.phyHeaderChecker outgoingPacketLengths:vector ETV
attr interpolationmode none
attr recordingmode vector
attr source "packetLength(merge(packetPushedOut, packetPulledOut))"
attr title "outgoing packet lengths"
attr unit b
vector 174 TsnLinearNetwork.client.eth[0].phyLayer.phyHeaderChecker outgoingDataRate:vector ETV
attr interpolationmode linear
attr recordingmode vector
attr source "throughput(merge(packetPushedOut, packetPulledOut))"
attr title "outgoing data rate"
attr unit bps
vector 175 TsnLinearNetwork.client.eth[0].phyLayer.phyHeaderChecker droppedPacketLengths:vector ETV
attr interpolationmode none
attr recordingmode vector
attr source packetLength(packetDropped)
attr title "dropped packet lengths"
attr unit b
vector 176 TsnLinearNetwork.client.eth[0].phyLayer.phyHeaderChecker droppedDataRate:vector ETV
attr interpolationmode linear
attr recordingmode vector
attr source throughput(packetDropped)
attr title "dropped data rate"
attr unit bps
vector 177 TsnLinearNetwork.client.eth[0].phyLayer.phyHeaderChecker flowIncomingPacketLengths:vector ETV
attr interpolationmode none
attr recordingmode vector
attr source "packetLength(demuxFlow(merge(packetPushedIn, packetPulledIn)))"
attr title "flow specific incoming packet lengths"
attr unit b
vector 178 TsnLinearNetwork.client.eth[0].phyLayer.phyHeaderChecker flowIncomingDataRate:vector ETV
attr interpolationmode linear
attr recordingmode vector
attr source "throughput(demuxFlow(merge(packetPushedIn, packetPulledIn)))"
attr title "flow specific incoming data rate"
attr unit bps
vector 179 TsnLinearNetwork.client.eth[0].phyLayer.phyHeaderChecker flowOutgoingPacketLengths:vector ETV
attr interpolationmode none
attr recordingmode vector
attr source "packetLength(demuxFlow(merge(packetPushedOut, packetPulledOut)))"
attr title "flow specific outgoing packet lengths"
attr unit b
vector 180 TsnLinearNetwork.client.eth[0].phyLayer.phyHeaderChecker flowOutgoingDataRate:vector ETV
attr interpolationmode linear
attr recordingmode vector
attr source "throughput(demuxFlow(merge(packetPushedOut, packetPulledOut)))"
attr title "flow specific outgoing data rate"
attr unit bps
vector 181 TsnLinearNetwork.client.eth[0].phyLayer.phyHeaderChecker flowDroppedPacketLengths:vector ETV
attr interpolationmode none
attr recordingmode vector
attr source packetLength(demuxFlow(packetDropped))
attr title "flow specific dropped packet lengths"
attr unit b
vector 182 TsnLinearNetwork.client.eth[0].phyLayer.phyHeaderChecker flowDroppedDataRate:vector ETV
attr interpolationmode linear
attr recordingmode vector
attr source throughput(demuxFlow(packetDropped))
attr title "flow specific dropped data rate"
attr unit bps
vector 183 TsnLinearNetwork.client.eth[0].phyLayer.inboundEmitter incomingPacketLengths:vector ETV
attr interpolationmode none
attr recordingmode vector
attr source "packetLength(merge(packetPushedIn, packetPulledIn))"
attr title "incoming packet lengths"
attr unit b
vector 184 TsnLinearNetwork.client.eth[0].phyLayer.inboundEmitter incomingDataRate:vector ETV
attr interpolationmode linear
attr recordingmode vector
attr source "throughput(merge(packetPushedIn, packetPulledIn))"
attr title "incoming data rate"
attr unit bps
vector 185 TsnLinearNetwork.client.eth[0].phyLayer.inboundEmitter outgoingPacketLengths:vector ETV
attr interpolationmode none
attr recordingmode vector
attr source "packetLength(merge(packetPushedOut, packetPulledOut))"
attr title "outgoing packet lengths"
attr unit b
vector 186 TsnLinearNetwork.client.eth[0].phyLayer.inboundEmitter outgoingDataRate:vector ETV
attr interpolationmode linear
attr recordingmode vector
attr source "throughput(merge(packetPushedOut, packetPulledOut))"
attr title "outgoing data rate"
attr unit bps
vector 187 TsnLinearNetwork.client.eth[0].phyLayer.inboundEmitter flowIncomingPacketLengths:vector ETV
attr interpolationmode none
attr recordingmode vector
attr source "packetLength(demuxFlow(merge(packetPushedIn, packetPulledIn)))"
attr title "flow specific incoming packet lengths"
attr unit b
vector 188 TsnLinearNetwork.client.eth[0].phyLayer.inboundEmitter flowIncomingDataRate:vector ETV
attr interpolationmode linear
attr recordingmode vector
attr source "throughput(demuxFlow(merge(packetPushedIn, packetPulledIn)))"
attr title "flow specific incoming data rate"
attr unit bps
vector 189 TsnLinearNetwork.client.eth[0].phyLayer.inboundEmitter flowOutgoingPacketLengths:vector ETV
attr interpolationmode none
attr recordingmode vector
attr source "packetLength(demuxFlow(merge(packetPushedOut, packetPulledOut)))"
attr title "flow specific outgoing packet lengths"
attr unit b
vector 190 TsnLinearNetwork.client.eth[0].phyLayer.inboundEmitter flowOutgoingDataRate:vector ETV
attr interpolationmode linear
attr recordingmode vector
attr source "throughput(demuxFlow(merge(packetPushedOut, packetPulledOut)))"
attr title "flow specific outgoing data rate"
attr unit bps
vector 191 TsnLinearNetwork.client.eth[0].phyLayer.receiver throughput:vector ETV
attr interpolationmode linear
attr recordingmode vector
attr source throughput(receptionEnded)
attr title throughput
attr unit bps
vector 192 TsnLinearNetwork.client.eth[0].phyLayer.receiver receptionTime:vector ETV
attr interpolationmode none
attr recordingmode vector
attr source packetDuration(receptionEnded)
attr title "reception time"
attr unit s
vector 193 TsnLinearNetwork.client.eth[0].phyLayer.receiver flowReceptionTime:vector ETV
attr interpolationmode none
attr recordingmode vector
attr source packetDuration(demuxFlow(receptionEnded))
attr title "flow reception time"
attr unit s
vector 194 TsnLinearNetwork.client.eth[0] packetDropInterfaceDown:vector(packetBytes) ETV
attr interpolationmode none
attr recordingmode vector(packetBytes)
attr source packetDropReasonIsInterfaceDown(packetDropped)
attr title "packet drops: interface down, packetBytes"
vector 195 TsnLinearNetwork.client.eth[0] packetDropNoCarrier:vector(packetBytes) ETV
attr interpolationmode none
attr recordingmode vector(packetBytes)
attr source packetDropReasonIsNoCarrier(packetDropped)
attr title "packet drops: no carrier, packetBytes"
vector 196 TsnLinearNetwork.client.ipv4.ip packetDropAddressResolutionFailed:vector(packetBytes) ETV
attr interpolationmode none
attr recordingmode vector(packetBytes)
attr source packetDropReasonIsAddressResolutionFailed(packetDropped)
attr title "packet drop: address resolution failed, packetBytes"
vector 197 TsnLinearNetwork.client.ipv4.ip packetDropHopLimitReached:vector(packetBytes) ETV
attr interpolationmode none
attr recordingmode vector(packetBytes)
attr source packetDropReasonIsHopLimitReached(packetDropped)
attr title "packet drop: hop limit reached, packetBytes"
vector 198 TsnLinearNetwork.client.ipv4.ip packetDropForwardingDisabled:vector(packetBytes) ETV
attr interpolationmode none
attr recordingmode vector(packetBytes)
attr source packetDropReasonIsForwardingDisabled(packetDropped)
attr title "packet drop: forwarding disabled, packetBytes"
vector 199 TsnLinearNetwork.client.ipv4.ip packetDropLifetimeExpired:vector(packetBytes) ETV
attr interpolationmode none
attr recordingmode vector(packetBytes)
attr source packetDropReasonIsLifetimeExpired(packetDropped)
attr title "packet drop: lifetime expired, packetBytes"
vector 200 TsnLinearNetwork.client.ipv4.ip packetDropNoInterfaceFound:vector(packetBytes) ETV
attr interpolationmode none
attr recordingmode vector(packetBytes)
attr source packetDropReasonIsNoInterfaceFound(packetDropped)
attr title "packet drop: no interface found, packetBytes"
vector 201 TsnLinearNetwork.client.ipv4.ip packetDropNoRouteFound:vector(packetBytes) ETV
attr interpolationmode none
attr recordingmode vector(packetBytes)
attr source packetDropReasonIsNoRouteFound(packetDropped)
attr title "packet drop: no route found, packetBytes"
vector 202 TsnLinearNetwork.client.ipv4.ip packetDropUndefined:vector(packetBytes) ETV
attr interpolationmode none
attr recordingmode vector(packetBytes)
attr source packetDropReasonIsUndefined(packetDropped)
attr title "packet drop: undefined, packetBytes"
vector 203 TsnLinearNetwork.client.udp packetSent:vector(packetBytes) ETV
attr interpolationmode none
attr recordingmode vector(packetBytes)
attr source packetSent
attr title "packets sent, packetBytes"
vector 204 TsnLinearNetwork.client.udp packetReceived:vector(packetBytes) ETV
attr interpolationmode none
attr recordingmode vector(packetBytes)
attr source packetReceived
attr title "packets received, packetBytes"
vector 205 TsnLinearNetwork.client.udp passedUpPk:vector(count) ETV
attr interpolationmode none
attr recordingmode vector(count)
attr source packetSentToUpper
attr title "packets passed up, count"
vector 206 TsnLinearNetwork.client.udp droppedPkWrongPort:vector(count) ETV
attr interpolationmode none
attr recordingmode vector(count)
attr source packetDropReasonIsNoPortFound(packetDropped)
attr title "packets dropped (wrong port), count"
vector 207 TsnLinearNetwork.client.udp droppedPkBadChecksum:vector(count) ETV
attr interpolationmode none
attr recordingmode vector(count)
attr source packetDropReasonIsIncorrectlyReceived(packetDropped)
attr title "packets dropped (checksum error), count"
vector 208 TsnLinearNetwork.client.app[0].source packetLengths:vector ETV
attr interpolationmode none
attr moduledisplaypath "TsnLinearNetwork.client.speed/torque command.source"
attr recordingmode vector
attr source packetLength(packetPushed)
attr title "packet lengths"
attr unit b
vector 209 TsnLinearNetwork.client.app[0].source dataRate:vector ETV
attr interpolationmode linear
attr moduledisplaypath "TsnLinearNetwork.client.speed/torque command.source"
attr recordingmode vector
attr source throughput(packetPushed)
attr title "data rate"
attr unit bps
vector 210 TsnLinearNetwork.client.app[0].io packetSent:vector(packetBytes) ETV
attr interpolationmode none
attr moduledisplaypath "TsnLinearNetwork.client.speed/torque command.io"
attr recordingmode vector(packetBytes)
attr source packetSent
attr title "packets sent, packetBytes"
vector 211 TsnLinearNetwork.client.app[0].io packetReceived:vector(packetBytes) ETV
attr interpolationmode none
attr moduledisplaypath "TsnLinearNetwork.client.speed/torque command.io"
attr recordingmode vector(packetBytes)
attr source packetReceived
attr title "packets received, packetBytes"
vector 212 TsnLinearNetwork.client.app[1].source packetLengths:vector ETV
attr interpolationmode none
attr moduledisplaypath "TsnLinearNetwork.client.brake command.source"
attr recordingmode vector
attr source packetLength(packetPushed)
attr title "packet lengths"
attr unit b
vector 213 TsnLinearNetwork.client.app[1].source dataRate:vector ETV
attr interpolationmode linear
attr moduledisplaypath "TsnLinearNetwork.client.brake command.source"
attr recordingmode vector
attr source throughput(packetPushed)
attr title "data rate"
attr unit bps
vector 214 TsnLinearNetwork.client.app[1].io packetSent:vector(packetBytes) ETV
attr interpolationmode none
attr moduledisplaypath "TsnLinearNetwork.client.brake command.io"
attr recordingmode vector(packetBytes)
attr source packetSent
attr title "packets sent, packetBytes"
vector 215 TsnLinearNetwork.client.app[1].io packetReceived:vector(packetBytes) ETV
attr interpolationmode none
attr moduledisplaypath "TsnLinearNetwork.client.brake command.io"
attr recordingmode vector(packetBytes)
attr source packetReceived
attr title "packets received, packetBytes"
vector 216 TsnLinearNetwork.switch.bridging.directionReverser.reverser incomingPacketLengths:vector ETV
attr interpolationmode none
attr recordingmode vector
attr source "packetLength(merge(packetPushedIn, packetPulledIn))"
attr title "incoming packet lengths"
attr unit b
vector 217 TsnLinearNetwork.switch.bridging.directionReverser.reverser incomingDataRate:vector ETV
attr interpolationmode linear
attr recordingmode vector
attr source "throughput(merge(packetPushedIn, packetPulledIn))"
attr title "incoming data rate"
attr unit bps
vector 218 TsnLinearNetwork.switch.bridging.directionReverser.reverser outgoingPacketLengths:vector ETV
attr interpolationmode none
attr recordingmode vector
attr source "packetLength(merge(packetPushedOut, packetPulledOut))"
attr title "outgoing packet lengths"
attr unit b
vector 219 TsnLinearNetwork.switch.bridging.directionReverser.reverser outgoingDataRate:vector ETV
attr interpolationmode linear
attr recordingmode vector
attr source "throughput(merge(packetPushedOut, packetPulledOut))"
attr title "outgoing data rate"
attr unit bps
vector 220 TsnLinearNetwork.switch.bridging.directionReverser.reverser flowIncomingPacketLengths:vector ETV
attr interpolationmode none
attr recordingmode vector
attr source "packetLength(demuxFlow(merge(packetPushedIn, packetPulledIn)))"
attr title "flow specific incoming packet lengths"
attr unit b
vector 221 TsnLinearNetwork.switch.bridging.directionReverser.reverser flowIncomingDataRate:vector ETV
attr interpolationmode linear
attr recordingmode vector
attr source "throughput(demuxFlow(merge(packetPushedIn, packetPulledIn)))"
attr title "flow specific incoming data rate"
attr unit bps
vector 222 TsnLinearNetwork.switch.bridging.directionReverser.reverser flowOutgoingPacketLengths:vector ETV
attr interpolationmode none
attr recordingmode vector
attr source "packetLength(demuxFlow(merge(packetPushedOut, packetPulledOut)))"
attr title "flow specific outgoing packet lengths"
attr unit b
vector 223 TsnLinearNetwork.switch.bridging.directionReverser.reverser flowOutgoingDataRate:vector ETV
attr interpolationmode linear
attr recordingmode vector
attr source "throughput(demuxFlow(merge(packetPushedOut, packetPulledOut)))"
attr title "flow specific outgoing data rate"
attr unit bps
vector 224 TsnLinearNetwork.switch.bridging.directionReverser.join packetLengths:vector ETV
attr interpolationmode none
attr recordingmode vector
attr source "packetLength(merge(packetPushed, packetPulled))"
attr title "packet lengths"
attr unit b
vector 225 TsnLinearNetwork.switch.bridging.directionReverser.join dataRate:vector ETV
attr interpolationmode linear
attr recordingmode vector
attr source "throughput(merge(packetPushed, packetPulled))"
attr title "data rate"
attr unit bps
vector 226 TsnLinearNetwork.switch.bridging.interfaceRelay.learner incomingPacketLengths:vector ETV
attr interpolationmode none
attr recordingmode vector
attr source "packetLength(merge(packetPushedIn, packetPulledIn))"
attr title "incoming packet lengths"
attr unit b
vector 227 TsnLinearNetwork.switch.bridging.interfaceRelay.learner incomingDataRate:vector ETV
attr interpolationmode linear
attr recordingmode vector
attr source "throughput(merge(packetPushedIn, packetPulledIn))"
attr title "incoming data rate"
attr unit bps
vector 228 TsnLinearNetwork.switch.bridging.interfaceRelay.learner outgoingPacketLengths:vector ETV
attr interpolationmode none
attr recordingmode vector
attr source "packetLength(merge(packetPushedOut, packetPulledOut))"
attr title "outgoing packet lengths"
attr unit b
vector 229 TsnLinearNetwork.switch.bridging.interfaceRelay.learner outgoingDataRate:vector ETV
attr interpolationmode linear
attr recordingmode vector
attr source "throughput(merge(packetPushedOut, packetPulledOut))"
attr title "outgoing data rate"
attr unit bps
vector 230 TsnLinearNetwork.switch.bridging.interfaceRelay.learner flowIncomingPacketLengths:vector ETV
attr interpolationmode none
attr recordingmode vector
attr source "packetLength(demuxFlow(merge(packetPushedIn, packetPulledIn)))"
attr title "flow specific incoming packet lengths"
attr unit b
vector 231 TsnLinearNetwork.switch.bridging.interfaceRelay.learner flowIncomingDataRate:vector ETV
attr interpolationmode linear
attr recordingmode vector
attr source "throughput(demuxFlow(merge(packetPushedIn, packetPulledIn)))"
attr title "flow specific incoming data rate"
attr unit bps
vector 232 TsnLinearNetwork.switch.bridging.interfaceRelay.learner flowOutgoingPacketLengths:vector ETV
attr interpolationmode none
attr recordingmode vector
attr source "packetLength(demuxFlow(merge(packetPushedOut, packetPulledOut)))"
attr title "flow specific outgoing packet lengths"
attr unit b
vector 233 TsnLinearNetwork.switch.bridging.interfaceRelay.learner flowOutgoingDataRate:vector ETV
attr interpolationmode linear
attr recordingmode vector
attr source "throughput(demuxFlow(merge(packetPushedOut, packetPulledOut)))"
attr title "flow specific outgoing data rate"
attr unit bps
vector 234 TsnLinearNetwork.switch.bridging.interfaceRelay.selector packetDropped:vector(packetBytes) ETV
attr interpolationmode none
attr recordingmode vector(packetBytes)
attr title "packets dropped, packetBytes"
vector 235 TsnLinearNetwork.switch.ethernet.macHeaderInserter incomingPacketLengths:vector ETV
attr interpolationmode none
attr recordingmode vector
attr source "packetLength(merge(packetPushedIn, packetPulledIn))"
attr title "incoming packet lengths"
attr unit b
vector 236 TsnLinearNetwork.switch.ethernet.macHeaderInserter incomingDataRate:vector ETV
attr interpolationmode linear
attr recordingmode vector
attr source "throughput(merge(packetPushedIn, packetPulledIn))"
attr title "incoming data rate"
attr unit bps
vector 237 TsnLinearNetwork.switch.ethernet.macHeaderInserter outgoingPacketLengths:vector ETV
attr interpolationmode none
attr recordingmode vector
attr source "packetLength(merge(packetPushedOut, packetPulledOut))"
attr title "outgoing packet lengths"
attr unit b
vector 238 TsnLinearNetwork.switch.ethernet.macHeaderInserter outgoingDataRate:vector ETV
attr interpolationmode linear
attr recordingmode vector
attr source "throughput(merge(packetPushedOut, packetPulledOut))"
attr title "outgoing data rate"
attr unit bps
vector 239 TsnLinearNetwork.switch.ethernet.macHeaderInserter flowIncomingPacketLengths:vector ETV
attr interpolationmode none
attr recordingmode vector
attr source "packetLength(demuxFlow(merge(packetPushedIn, packetPulledIn)))"
attr title "flow specific incoming packet lengths"
attr unit b
vector 240 TsnLinearNetwork.switch.ethernet.macHeaderInserter flowIncomingDataRate:vector ETV
attr interpolationmode linear
attr recordingmode vector
attr source "throughput(demuxFlow(merge(packetPushedIn, packetPulledIn)))"
attr title "flow specific incoming data rate"
attr unit bps
vector 241 TsnLinearNetwork.switch.ethernet.macHeaderInserter flowOutgoingPacketLengths:vector ETV
attr interpolationmode none
attr recordingmode vector
attr source "packetLength(demuxFlow(merge(packetPushedOut, packetPulledOut)))"
attr title "flow specific outgoing packet lengths"
attr unit b
vector 242 TsnLinearNetwork.switch.ethernet.macHeaderInserter flowOutgoingDataRate:vector ETV
attr interpolationmode linear
attr recordingmode vector
attr source "throughput(demuxFlow(merge(packetPushedOut, packetPulledOut)))"
attr title "flow specific outgoing data rate"
attr unit bps
vector 243 TsnLinearNetwork.switch.ethernet.paddingInserter incomingPacketLengths:vector ETV
attr interpolationmode none
attr recordingmode vector
attr source "packetLength(merge(packetPushedIn, packetPulledIn))"
attr title "incoming packet lengths"
attr unit b
vector 244 TsnLinearNetwork.switch.ethernet.paddingInserter incomingDataRate:vector ETV
attr interpolationmode linear
attr recordingmode vector
attr source "throughput(merge(packetPushedIn, packetPulledIn))"
attr title "incoming data rate"
attr unit bps
vector 245 TsnLinearNetwork.switch.ethernet.paddingInserter outgoingPacketLengths:vector ETV
attr interpolationmode none
attr recordingmode vector
attr source "packetLength(merge(packetPushedOut, packetPulledOut))"
attr title "outgoing packet lengths"
attr unit b
vector 246 TsnLinearNetwork.switch.ethernet.paddingInserter outgoingDataRate:vector ETV
attr interpolationmode linear
attr recordingmode vector
attr source "throughput(merge(packetPushedOut, packetPulledOut))"
attr title "outgoing data rate"
attr unit bps
vector 247 TsnLinearNetwork.switch.ethernet.paddingInserter flowIncomingPacketLengths:vector ETV
attr interpolationmode none
attr recordingmode vector
attr source "packetLength(demuxFlow(merge(packetPushedIn, packetPulledIn)))"
attr title "flow specific incoming packet lengths"
attr unit b
vector 248 TsnLinearNetwork.switch.ethernet.paddingInserter flowIncomingDataRate:vector ETV
attr interpolationmode linear
attr recordingmode vector
attr source "throughput(demuxFlow(merge(packetPushedIn, packetPulledIn)))"
attr title "flow specific incoming data rate"
attr unit bps
vector 249 TsnLinearNetwork.switch.ethernet.paddingInserter flowOutgoingPacketLengths:vector ETV
attr interpolationmode none
attr recordingmode vector
attr source "packetLength(demuxFlow(merge(packetPushedOut, packetPulledOut)))"
attr title "flow specific outgoing packet lengths"
attr unit b
vector 250 TsnLinearNetwork.switch.ethernet.paddingInserter flowOutgoingDataRate:vector ETV
attr interpolationmode linear
attr recordingmode vector
attr source "throughput(demuxFlow(merge(packetPushedOut, packetPulledOut)))"
attr title "flow specific outgoing data rate"
attr unit bps
vector 251 TsnLinearNetwork.switch.ethernet.fcsInserter incomingPacketLengths:vector ETV
attr interpolationmode none
attr recordingmode vector
attr source "packetLength(merge(packetPushedIn, packetPulledIn))"
attr title "incoming packet lengths"
attr unit b
vector 252 TsnLinearNetwork.switch.ethernet.fcsInserter incomingDataRate:vector ETV
attr interpolationmode linear
attr recordingmode vector
attr source "throughput(merge(packetPushedIn, packetPulledIn))"
attr title "incoming data rate"
attr unit bps
vector 253 TsnLinearNetwork.switch.ethernet.fcsInserter outgoingPacketLengths:vector ETV
attr interpolationmode none
attr recordingmode vector
attr source "packetLength(merge(packetPushedOut, packetPulledOut))"
attr title "outgoing packet lengths"
attr unit b
vector 254 TsnLinearNetwork.switch.ethernet.fcsInserter outgoingDataRate:vector ETV
attr interpolationmode linear
attr recordingmode vector
attr source "throughput(merge(packetPushedOut, packetPulledOut))"
attr title "outgoing data rate"
attr unit bps
vector 255 TsnLinearNetwork.switch.ethernet.fcsInserter flowIncomingPacketLengths:vector ETV
attr interpolationmode none
attr recordingmode vector
attr source "packetLength(demuxFlow(merge(packetPushedIn, packetPulledIn)))"
attr title "flow specific incoming packet lengths"
attr unit b
vector 256 TsnLinearNetwork.switch.ethernet.fcsInserter flowIncomingDataRate:vector ETV
attr interpolationmode linear
attr recordingmode vector
attr source "throughput(demuxFlow(merge(packetPushedIn, packetPulledIn)))"
attr title "flow specific incoming data rate"
attr unit bps
vector 257 TsnLinearNetwork.switch.ethernet.fcsInserter flowOutgoingPacketLengths:vector ETV
attr interpolationmode none
attr recordingmode vector
attr source "packetLength(demuxFlow(merge(packetPushedOut, packetPulledOut)))"
attr title "flow specific outgoing packet lengths"
attr unit b
vector 258 TsnLinearNetwork.switch.ethernet.fcsInserter flowOutgoingDataRate:vector ETV
attr interpolationmode linear
attr recordingmode vector
attr source "throughput(demuxFlow(merge(packetPushedOut, packetPulledOut)))"
attr title "flow specific outgoing data rate"
attr unit bps
vector 259 TsnLinearNetwork.switch.ethernet.macHeaderChecker incomingPacketLengths:vector ETV
attr interpolationmode none
attr recordingmode vector
attr source "packetLength(merge(packetPushedIn, packetPulledIn))"
attr title "incoming packet lengths"
attr unit b
vector 260 TsnLinearNetwork.switch.ethernet.macHeaderChecker incomingDataRate:vector ETV
attr interpolationmode linear
attr recordingmode vector
attr source "throughput(merge(packetPushedIn, packetPulledIn))"
attr title "incoming data rate"
attr unit bps
vector 261 TsnLinearNetwork.switch.ethernet.macHeaderChecker outgoingPacketLengths:vector ETV
attr interpolationmode none
attr recordingmode vector
attr source "packetLength(merge(packetPushedOut, packetPulledOut))"
attr title "outgoing packet lengths"
attr unit b
vector 262 TsnLinearNetwork.switch.ethernet.macHeaderChecker outgoingDataRate:vector ETV
attr interpolationmode linear
attr recordingmode vector
attr source "throughput(merge(packetPushedOut, packetPulledOut))"
attr title "outgoing data rate"
attr unit bps
vector 263 TsnLinearNetwork.switch.ethernet.macHeaderChecker droppedPacketLengths:vector ETV
attr interpolationmode none
attr recordingmode vector
attr source packetLength(packetDropped)
attr title "dropped packet lengths"
attr unit b
vector 264 TsnLinearNetwork.switch.ethernet.macHeaderChecker droppedDataRate:vector ETV
attr interpolationmode linear
attr recordingmode vector
attr source throughput(packetDropped)
attr title "dropped data rate"
attr unit bps
vector 265 TsnLinearNetwork.switch.ethernet.macHeaderChecker flowIncomingPacketLengths:vector ETV
attr interpolationmode none
attr recordingmode vector
attr source "packetLength(demuxFlow(merge(packetPushedIn, packetPulledIn)))"
attr title "flow specific incoming packet lengths"
attr unit b
vector 266 TsnLinearNetwork.switch.ethernet.macHeaderChecker flowIncomingDataRate:vector ETV
attr interpolationmode linear
attr recordingmode vector
attr source "throughput(demuxFlow(merge(packetPushedIn, packetPulledIn)))"
attr title "flow specific incoming data rate"
attr unit bps
vector 267 TsnLinearNetwork.switch.ethernet.macHeaderChecker flowOutgoingPacketLengths:vector ETV
attr interpolationmode none
attr recordingmode vector
attr source "packetLength(demuxFlow(merge(packetPushedOut, packetPulledOut)))"
attr title "flow specific outgoing packet lengths"
attr unit b
vector 268 TsnLinearNetwork.switch.ethernet.macHeaderChecker flowOutgoingDataRate:vector ETV
attr interpolationmode linear
attr recordingmode vector
attr source "throughput(demuxFlow(merge(packetPushedOut, packetPulledOut)))"
attr title "flow specific outgoing data rate"
attr unit bps
vector 269 TsnLinearNetwork.switch.ethernet.macHeaderChecker flowDroppedPacketLengths:vector ETV
attr interpolationmode none
attr recordingmode vector
attr source packetLength(demuxFlow(packetDropped))
attr title "flow specific dropped packet lengths"
attr unit b
vector 270 TsnLinearNetwork.switch.ethernet.macHeaderChecker flowDroppedDataRate:vector ETV
attr interpolationmode linear
attr recordingmode vector
attr source throughput(demuxFlow(packetDropped))
attr title "flow specific dropped data rate"
attr unit bps
vector 271 TsnLinearNetwork.switch.ethernet.fcsChecker incomingPacketLengths:vector ETV
attr interpolationmode none
attr recordingmode vector
attr source "packetLength(merge(packetPushedIn, packetPulledIn))"
attr title "incoming packet lengths"
attr unit b
vector 272 TsnLinearNetwork.switch.ethernet.fcsChecker incomingDataRate:vector ETV
attr interpolationmode linear
attr recordingmode vector
attr source "throughput(merge(packetPushedIn, packetPulledIn))"
attr title "incoming data rate"
attr unit bps
vector 273 TsnLinearNetwork.switch.ethernet.fcsChecker outgoingPacketLengths:vector ETV
attr interpolationmode none
attr recordingmode vector
attr source "packetLength(merge(packetPushedOut, packetPulledOut))"
attr title "outgoing packet lengths"
attr unit b
vector 274 TsnLinearNetwork.switch.ethernet.fcsChecker outgoingDataRate:vector ETV
attr interpolationmode linear
attr recordingmode vector
attr source "throughput(merge(packetPushedOut, packetPulledOut))"
attr title "outgoing data rate"
attr unit bps
vector 275 TsnLinearNetwork.switch.ethernet.fcsChecker droppedPacketLengths:vector ETV
attr interpolationmode none
attr recordingmode vector
attr source packetLength(packetDropped)
attr title "dropped packet lengths"
attr unit b
vector 276 TsnLinearNetwork.switch.ethernet.fcsChecker droppedDataRate:vector ETV
attr interpolationmode linear
attr recordingmode vector
attr source throughput(packetDropped)
attr title "dropped data rate"
attr unit bps
vector 277 TsnLinearNetwork.switch.ethernet.fcsChecker flowIncomingPacketLengths:vector ETV
attr interpolationmode none
attr recordingmode vector
attr source "packetLength(demuxFlow(merge(packetPushedIn, packetPulledIn)))"
attr title "flow specific incoming packet lengths"
attr unit b
vector 278 TsnLinearNetwork.switch.ethernet.fcsChecker flowIncomingDataRate:vector ETV
attr interpolationmode linear
attr recordingmode vector
attr source "throughput(demuxFlow(merge(packetPushedIn, packetPulledIn)))"
attr title "flow specific incoming data rate"
attr unit bps
vector 279 TsnLinearNetwork.switch.ethernet.fcsChecker flowOutgoingPacketLengths:vector ETV
attr interpolationmode none
attr recordingmode vector
attr source "packetLength(demuxFlow(merge(packetPushedOut, packetPulledOut)))"
attr title "flow specific outgoing packet lengths"
attr unit b
vector 280 TsnLinearNetwork.switch.ethernet.fcsChecker flowOutgoingDataRate:vector ETV
attr interpolationmode linear
attr recordingmode vector
attr source "throughput(demuxFlow(merge(packetPushedOut, packetPulledOut)))"
attr title "flow specific outgoing data rate"
attr unit bps
vector 281 TsnLinearNetwork.switch.ethernet.fcsChecker flowDroppedPacketLengths:vector ETV
attr interpolationmode none
attr recordingmode vector
attr source packetLength(demuxFlow(packetDropped))
attr title "flow specific dropped packet lengths"
attr unit b
vector 282 TsnLinearNetwork.switch.ethernet.fcsChecker flowDroppedDataRate:vector ETV
attr interpolationmode linear
attr recordingmode vector
attr source throughput(demuxFlow(packetDropped))
attr title "flow specific dropped data rate"
attr unit bps
vector 283 TsnLinearNetwork.switch.ieee8021q.qTagHeaderInserter incomingPacketLengths:vector ETV
attr interpolationmode none
attr recordingmode vector
[...]
attr title "packets sent, packetBytes"
vector 1011 TsnLinearNetwork.server.app[0].io packetReceived:vector(packetBytes) ETV
attr interpolationmode none
attr recordingmode vector(packetBytes)
attr source packetReceived
attr title "packets received, packetBytes"
vector 1012 TsnLinearNetwork.server.app[1].sink droppedPacketLengths:vector ETV
attr interpolationmode none
attr recordingmode vector
attr source packetLength(packetDropped)
attr title "dropped packet lengths"
attr unit b
vector 1013 TsnLinearNetwork.server.app[1].sink droppedDataRate:vector ETV
attr interpolationmode linear
attr recordingmode vector
attr source throughput(packetDropped)
attr title "dropped data rate"
attr unit bps
vector 1014 TsnLinearNetwork.server.app[1].sink packetLengths:vector ETV
attr interpolationmode none
attr recordingmode vector
attr source packetLength(packetPushed)
attr title "packet lengths"
attr unit b
vector 1015 TsnLinearNetwork.server.app[1].sink dataRate:vector ETV
attr interpolationmode linear
attr recordingmode vector
attr source throughput(packetPushed)
attr title "data rate"
attr unit bps
vector 1016 TsnLinearNetwork.server.app[1].sink meanBitLifeTimePerPacket:vector ETV
attr interpolationmode none
attr recordingmode vector
attr source weightedMeanPerGroup(groupRegionsPerPacket(lifeTimePerRegion(packetPushed)))
attr title "mean bit life time per packet"
attr unit s
vector 1017 TsnLinearNetwork.server.app[1].sink packetLifeTime:vector ETV
attr interpolationmode none
attr recordingmode vector
attr source packetLifeTime(packetPushed)
attr title "packet life time"
attr unit s
vector 1018 TsnLinearNetwork.server.app[1].sink packetJitter:vector ETV
attr interpolationmode none
attr recordingmode vector
attr source jitter(weightedMeanPerGroup(groupRegionsPerPacket(lifeTimePerRegion(packetPushed))))
attr title "packet jitter"
attr unit s
vector 1019 TsnLinearNetwork.server.app[1].sink packetDelayDifferenceToMean:vector ETV
attr interpolationmode none
attr recordingmode vector
attr source differenceToMean(weightedMeanPerGroup(groupRegionsPerPacket(lifeTimePerRegion(packetPushed))))
attr title "packet delay difference to mean"
attr unit s
vector 1020 TsnLinearNetwork.server.app[1].sink packetDelayVariation:vector ETV
attr recordingmode vector
attr source stddev(weightedMeanPerGroup(groupRegionsPerPacket(lifeTimePerRegion(packetPushed))))
attr title "packet delay variation"
attr unit s
vector 1021 TsnLinearNetwork.server.app[1].io packetSent:vector(packetBytes) ETV
attr interpolationmode none
attr recordingmode vector(packetBytes)
attr source packetSent
attr title "packets sent, packetBytes"
vector 1022 TsnLinearNetwork.server.app[1].io packetReceived:vector(packetBytes) ETV
attr interpolationmode none
attr recordingmode vector(packetBytes)
attr source packetReceived
attr title "packets received, packetBytes"
10	17	0	736
10	18	0	2272
12	17	0	736
12	18	0	2272
26	17	0	736
26	18	0	2272
28	17	0	736
28	18	0	2272
34	17	0	768
34	18	0	2304
36	17	0	880
36	18	0	2416
42	17	0	880
42	18	0	2416
44	17	0	880
44	18	0	2416
50	17	0	880
50	18	0	2416
52	17	0	912
52	18	0	2448
82	17	0	736
82	18	0	2272
84	17	0	768
84	18	0	2304
106	0	0	0
106	0	0	0
106	0	0	0
106	0	0	0
106	0	0	0
106	17	0	1
106	18	0	2
106	19	0	1
106	24	0.00001072	0
107	0	0	0
107	0	0	0
107	0	0	0
107	0	0	0
107	0	0	0
107	17	0	912
107	18	0	3360
107	19	0	2448
107	24	0.00001072	0
108	19	0	0
108	24	0.00001072	1.072e-05
109	17	0	912
109	18	0	2448
111	19	0	912
111	24	0.00001072	2448
117	19	0	912
117	24	0.00001072	2448
119	19	0	912
119	24	0.00001072	2448
121	19	0	912
121	24	0.00001072	2448
123	19	0	912
123	24	0.00001072	2448
149	19	0	912
149	24	0.00001072	2448
151	19	0	976
151	24	0.00001072	2512
157	0	0	0
157	0	0	0
157	20	0.00000976	1
157	23	0.00001072	0
157	34	0.00003584	1
158	19	0	976
158	24	0.00001072	2512
160	19	0	976
160	24	0.00001072	2512
166	0	0	0
166	0	0	0
166	19	0	1
166	20	0.00000976	0
166	24	0.00001072	1
166	34	0.00003584	0
169	20	0.00000976	9.76e-06
169	34	0.00003584	2.512e-05
203	13	0	72
203	14	0	264
205	0	0	0
206	0	0	0
207	0	0	0
208	0	0	512
210	2	0	64
212	0	0	2048
214	3	0	256
216	21	0.00000981	736
218	21	0.00000981	736
226	21	0.00000981	736
228	21	0.00000981	736
235	21	0.00000981	736
237	21	0.00000981	848
243	21	0.00000981	848
245	21	0.00000981	848
251	21	0.00000981	848
253	21	0.00000981	880
259	21	0.00000981	880
261	21	0.00000981	768
271	21	0.00000981	912
273	21	0.00000981	880
291	21	0.00000981	768
293	21	0.00000981	736
325	0	0	0
325	0	0	0
325	0	0	0
325	0	0	0
325	0	0	0
326	0	0	0
326	0	0	0
326	0	0	0
326	0	0	0
326	0	0	0
336	0	0	0
336	0	0	0
336	0	0	0
336	0	0	0
336	0	0	0
337	0	0	0
337	0	0	0
337	0	0	0
337	0	0	0
337	0	0	0
347	0	0	0
347	0	0	0
347	0	0	0
347	0	0	0
347	0	0	0
348	0	0	0
348	0	0	0
348	0	0	0
348	0	0	0
348	0	0	0
358	0	0	0
358	0	0	0
358	0	0	0
358	0	0	0
358	0	0	0
359	0	0	0
359	0	0	0
359	0	0	0
359	0	0	0
359	0	0	0
369	0	0	0
369	0	0	0
369	0	0	0
369	0	0	0
369	0	0	0
370	0	0	0
370	0	0	0
370	0	0	0
370	0	0	0
370	0	0	0
380	0	0	0
380	0	0	0
380	0	0	0
380	0	0	0
380	0	0	0
381	0	0	0
381	0	0	0
381	0	0	0
381	0	0	0
381	0	0	0
391	0	0	0
391	0	0	0
391	0	0	0
391	0	0	0
391	0	0	0
392	0	0	0
392	0	0	0
392	0	0	0
392	0	0	0
392	0	0	0
402	0	0	0
402	0	0	0
402	0	0	0
402	0	0	0
402	0	0	0
403	0	0	0
403	0	0	0
403	0	0	0
403	0	0	0
403	0	0	0
421	0	0	1
422	0	0	0
431	0	0	1
432	0	0	0
441	0	0	1
442	0	0	0
451	0	0	1
452	0	0	0
461	0	0	1
462	0	0	0
471	0	0	0
472	0	0	0
481	0	0	1
482	0	0	0
491	0	0	1
492	0	0	0
495	0	0	0
495	0	0	0
495	0	0	0
495	0	0	0
495	0	0	0
496	0	0	0
496	0	0	0
496	0	0	0
496	0	0	0
496	0	0	0
518	21	0.00000981	912
520	21	0.00000981	912
530	21	0.00000981	912
532	21	0.00000981	912
546	0	0	0
546	0	0	0
555	0	0	0
555	0	0	0
560	21	0.00000981	976
562	21	0.00000981	912
572	21	0.00000981	976
574	21	0.00000981	976
581	21	0.00000981	9.76e-06
585	21	0.00000981	880
587	0	0	0
587	0	0	0
587	0	0	0
587	0	0	0
587	0	0	0
588	0	0	0
588	0	0	0
588	0	0	0
588	0	0	0
588	0	0	0
598	0	0	0
598	0	0	0
598	0	0	0
598	0	0	0
598	0	0	0
599	0	0	0
599	0	0	0
599	0	0	0
599	0	0	0
599	0	0	0
609	0	0	0
609	0	0	0
609	0	0	0
609	0	0	0
609	0	0	0
610	0	0	0
610	0	0	0
610	0	0	0
610	0	0	0
610	0	0	0
620	0	0	0
620	0	0	0
620	0	0	0
620	0	0	0
620	0	0	0
621	0	0	0
621	0	0	0
621	0	0	0
621	0	0	0
621	0	0	0
631	0	0	0
631	0	0	0
631	0	0	0
631	0	0	0
631	0	0	0
632	0	0	0
632	0	0	0
632	0	0	0
632	0	0	0
632	0	0	0
642	0	0	0
642	0	0	0
642	0	0	0
642	0	0	0
642	0	0	0
643	0	0	0
643	0	0	0
643	0	0	0
643	0	0	0
643	0	0	0
653	0	0	0
653	0	0	0
653	0	0	0
653	0	0	0
653	0	0	0
654	0	0	0
654	0	0	0
654	0	0	0
654	0	0	0
654	0	0	0
664	0	0	0
664	0	0	0
664	0	0	0
664	0	0	0
664	0	0	0
664	21	0.00000981	1
664	22	0.00000981	0
665	0	0	0
665	0	0	0
665	0	0	0
665	0	0	0
665	0	0	0
665	21	0.00000981	880
665	22	0.00000981	0
666	22	0.00000981	0
667	21	0.00000981	880
669	22	0.00000981	880
683	0	0	1
684	0	0	0
693	0	0	1
694	0	0	0
703	0	0	1
704	0	0	0
713	0	0	1
714	0	0	0
723	0	0	1
724	0	0	0
733	0	0	0
734	0	0	0
743	0	0	1
744	0	0	0
745	22	0.00000981	880
747	22	0.00000981	880
753	0	0	1
754	0	0	0
755	22	0.00000981	880
757	0	0	0
757	0	0	0
757	0	0	0
757	0	0	0
757	0	0	0
757	21	0.00000981	1
757	22	0.00000981	0
758	0	0	0
758	0	0	0
758	0	0	0
758	0	0	0
758	0	0	0
758	21	0.00000981	880
758	22	0.00000981	0
759	22	0.00000981	0
760	21	0.00000981	880
762	22	0.00000981	880
768	22	0.00000981	880
770	22	0.00000981	880
772	22	0.00000981	880
774	22	0.00000981	880
800	22	0.00000981	880
802	22	0.00000981	944
808	0	0	0
808	0	0	0
808	25	0.00001925	1
808	32	0.00002021	0
809	22	0.00000981	944
811	22	0.00000981	944
817	0	0	0
817	0	0	0
817	22	0.00000981	1
817	25	0.00001925	0
820	25	0.00001925	9.44e-06
871	26	0.0000193	848
873	26	0.0000193	736
883	26	0.0000193	880
885	26	0.0000193	848
899	0	0	0
899	0	0	0
899	0	0	0
899	0	0	0
899	0	0	0
900	0	0	0
900	0	0	0
900	0	0	0
900	0	0	0
900	0	0	0
922	26	0.0000193	880
924	26	0.0000193	880
934	26	0.0000193	880
936	26	0.0000193	880
950	0	0	0
950	0	0	0
959	0	0	0
959	0	0	0
964	26	0.0000193	944
966	26	0.0000193	880
976	26	0.0000193	944
978	26	0.0000193	944
985	26	0.0000193	9.44e-06
997	28	0.0000193	72
998	0	0	0
998	28	0.0000193	1
999	0	0	0
1000	0	0	0
1001	30	0.0000193	512
1003	30	0.0000193	512
1006	30	0.0000193	1.93e-05
1011	29	0.0000193	64
1	34	0.000035840137	0
3	34	0.000035840137	0
5	34	0.000035840137	0
7	34	0.000035840137	0
9	34	0.000035840137	0
11	34	0.000035840137	83928250.609087
13	34	0.000035840137	83928250.609087
15	34	0.000035840137	0
17	34	0.000035840137	0
19	34	0.000035840137	0
21	34	0.000035840137	0
23	34	0.000035840137	0
25	34	0.000035840137	0
27	34	0.000035840137	83928250.609087
29	34	0.000035840137	83928250.609087
31	34	0.000035840137	0
33	34	0.000035840137	0
35	34	0.000035840137	85713958.068854
37	34	0.000035840137	91963934.178042
39	34	0.000035840137	0
41	34	0.000035840137	0
43	34	0.000035840137	91963934.178042
45	34	0.000035840137	91963934.178042
47	34	0.000035840137	0
49	34	0.000035840137	0
51	34	0.000035840137	91963934.178042
53	34	0.000035840137	93749641.63781
55	34	0.000035840137	0
57	34	0.000035840137	0
59	34	0.000035840137	0
61	34	0.000035840137	0
63	34	0.000035840137	0
65	34	0.000035840137	0
67	34	0.000035840137	0
69	34	0.000035840137	0
71	34	0.000035840137	0
73	34	0.000035840137	0
75	34	0.000035840137	0
77	34	0.000035840137	0
79	34	0.000035840137	0
81	34	0.000035840137	0
83	34	0.000035840137	83928250.609087
85	34	0.000035840137	85713958.068854
87	34	0.000035840137	0
89	34	0.000035840137	0
91	34	0.000035840137	0
93	34	0.000035840137	0
95	34	0.000035840137	0
97	34	0.000035840137	0
99	34	0.000035840137	0
101	34	0.000035840137	0
110	34	0.000035840137	93749641.63781
112	34	0.000035840137	93749641.63781
115	34	0.000035840137	0
116	34	0.000035840137	0
118	34	0.000035840137	93749641.63781
120	34	0.000035840137	93749641.63781
122	34	0.000035840137	93749641.63781
124	34	0.000035840137	93749641.63781
126	34	0.000035840137	0
128	34	0.000035840137	0
130	34	0.000035840137	0
132	34	0.000035840137	0
134	34	0.000035840137	0
136	34	0.000035840137	0
138	34	0.000035840137	0
140	34	0.000035840137	0
142	34	0.000035840137	0
144	34	0.000035840137	0
146	34	0.000035840137	0
148	34	0.000035840137	0
150	34	0.000035840137	93749641.63781
152	34	0.000035840137	97321056.557345
154	34	0.000035840137	0
156	34	0.000035840137	0
159	34	0.000035840137	97321056.557345
161	34	0.000035840137	97321056.557345
163	34	0.000035840137	0
165	34	0.000035840137	0
167	34	0.000035840137	97321056.557345
168	34	0.000035840137	97.321056557345
172	34	0.000035840137	0
174	34	0.000035840137	0
176	34	0.000035840137	0
178	34	0.000035840137	0
180	34	0.000035840137	0
182	34	0.000035840137	0
184	34	0.000035840137	0
186	34	0.000035840137	0
188	34	0.000035840137	0
190	34	0.000035840137	0
191	34	0.000035840137	0
209	34	0.000035840137	14285659.678142
213	34	0.000035840137	57142638.71257
217	34	0.000035840137	20535635.78733
219	34	0.000035840137	20535635.78733
221	34	0.000035840137	0
223	34	0.000035840137	0
225	34	0.000035840137	0
227	34	0.000035840137	20535635.78733
229	34	0.000035840137	20535635.78733
231	34	0.000035840137	0
233	34	0.000035840137	0
236	34	0.000035840137	20535635.78733
238	34	0.000035840137	23660623.841923
240	34	0.000035840137	0
242	34	0.000035840137	0
244	34	0.000035840137	23660623.841923
246	34	0.000035840137	23660623.841923
248	34	0.000035840137	0
250	34	0.000035840137	0
252	34	0.000035840137	23660623.841923
254	34	0.000035840137	24553477.571807
256	34	0.000035840137	0
258	34	0.000035840137	0
260	34	0.000035840137	24553477.571807
262	34	0.000035840137	21428489.517214
264	34	0.000035840137	0
266	34	0.000035840137	0
268	34	0.000035840137	0
270	34	0.000035840137	0
272	34	0.000035840137	25446331.301691
274	34	0.000035840137	24553477.571807
276	34	0.000035840137	0
278	34	0.000035840137	0
280	34	0.000035840137	0
282	34	0.000035840137	0
284	34	0.000035840137	0
286	34	0.000035840137	0
288	34	0.000035840137	0
290	34	0.000035840137	0
292	34	0.000035840137	21428489.517214
294	34	0.000035840137	20535635.78733
296	34	0.000035840137	0
298	34	0.000035840137	0
300	34	0.000035840137	0
302	34	0.000035840137	0
304	34	0.000035840137	0
306	34	0.000035840137	0
308	34	0.000035840137	0
310	34	0.000035840137	0
312	34	0.000035840137	0
314	34	0.000035840137	0
316	34	0.000035840137	0
318	34	0.000035840137	0
320	34	0.000035840137	0
322	34	0.000035840137	0
324	34	0.000035840137	0
329	34	0.000035840137	0
331	34	0.000035840137	0
334	34	0.000035840137	0
335	34	0.000035840137	0
340	34	0.000035840137	0
342	34	0.000035840137	0
345	34	0.000035840137	0
346	34	0.000035840137	0
351	34	0.000035840137	0
353	34	0.000035840137	0
356	34	0.000035840137	0
357	34	0.000035840137	0
362	34	0.000035840137	0
364	34	0.000035840137	0
367	34	0.000035840137	0
368	34	0.000035840137	0
373	34	0.000035840137	0
375	34	0.000035840137	0
378	34	0.000035840137	0
379	34	0.000035840137	0
384	34	0.000035840137	0
386	34	0.000035840137	0
389	34	0.000035840137	0
390	34	0.000035840137	0
395	34	0.000035840137	0
397	34	0.000035840137	0
400	34	0.000035840137	0
401	34	0.000035840137	0
406	34	0.000035840137	0
408	34	0.000035840137	0
411	34	0.000035840137	0
412	34	0.000035840137	0
414	34	0.000035840137	0
416	34	0.000035840137	0
418	34	0.000035840137	0
420	34	0.000035840137	0
422	34	0.000035840137	0
424	34	0.000035840137	0
426	34	0.000035840137	0
428	34	0.000035840137	0
430	34	0.000035840137	0
432	34	0.000035840137	0
434	34	0.000035840137	0
436	34	0.000035840137	0
438	34	0.000035840137	0
440	34	0.000035840137	0
442	34	0.000035840137	0
444	34	0.000035840137	0
446	34	0.000035840137	0
448	34	0.000035840137	0
450	34	0.000035840137	0
452	34	0.000035840137	0
454	34	0.000035840137	0
456	34	0.000035840137	0
458	34	0.000035840137	0
460	34	0.000035840137	0
462	34	0.000035840137	0
464	34	0.000035840137	0
466	34	0.000035840137	0
468	34	0.000035840137	0
470	34	0.000035840137	0
472	34	0.000035840137	0
474	34	0.000035840137	0
476	34	0.000035840137	0
478	34	0.000035840137	0
480	34	0.000035840137	0
482	34	0.000035840137	0
484	34	0.000035840137	0
486	34	0.000035840137	0
488	34	0.000035840137	0
490	34	0.000035840137	0
492	34	0.000035840137	0
494	34	0.000035840137	0
499	34	0.000035840137	0
501	34	0.000035840137	0
504	34	0.000035840137	0
505	34	0.000035840137	0
507	34	0.000035840137	0
509	34	0.000035840137	0
511	34	0.000035840137	0
513	34	0.000035840137	0
515	34	0.000035840137	0
517	34	0.000035840137	0
519	34	0.000035840137	25446331.301691
521	34	0.000035840137	25446331.301691
523	34	0.000035840137	0
525	34	0.000035840137	0
527	34	0.000035840137	0
529	34	0.000035840137	0
531	34	0.000035840137	25446331.301691
533	34	0.000035840137	25446331.301691
535	34	0.000035840137	0
537	34	0.000035840137	0
539	34	0.000035840137	0
541	34	0.000035840137	0
543	34	0.000035840137	0
545	34	0.000035840137	0
548	34	0.000035840137	0
550	34	0.000035840137	0
552	34	0.000035840137	0
554	34	0.000035840137	0
556	34	0.000035840137	0
557	34	0.000035840137	0
561	34	0.000035840137	27232038.761459
563	34	0.000035840137	25446331.301691
565	34	0.000035840137	0
567	34	0.000035840137	0
569	34	0.000035840137	0
571	34	0.000035840137	0
573	34	0.000035840137	27232038.761459
575	34	0.000035840137	27232038.761459
577	34	0.000035840137	0
579	34	0.000035840137	0
580	34	0.000035840137	27232038.761459
586	34	0.000035840137	24553477.571807
591	34	0.000035840137	0
593	34	0.000035840137	0
596	34	0.000035840137	0
597	34	0.000035840137	0
602	34	0.000035840137	0
604	34	0.000035840137	0
607	34	0.000035840137	0
608	34	0.000035840137	0
613	34	0.000035840137	0
615	34	0.000035840137	0
618	34	0.000035840137	0
619	34	0.000035840137	0
624	34	0.000035840137	0
626	34	0.000035840137	0
629	34	0.000035840137	0
630	34	0.000035840137	0
635	34	0.000035840137	0
637	34	0.000035840137	0
640	34	0.000035840137	0
641	34	0.000035840137	0
646	34	0.000035840137	0
648	34	0.000035840137	0
651	34	0.000035840137	0
652	34	0.000035840137	0
657	34	0.000035840137	0
659	34	0.000035840137	0
662	34	0.000035840137	0
663	34	0.000035840137	0
668	34	0.000035840137	24553477.571807
670	34	0.000035840137	24553477.571807
673	34	0.000035840137	0
674	34	0.000035840137	0
676	34	0.000035840137	0
678	34	0.000035840137	0
680	34	0.000035840137	0
682	34	0.000035840137	0
684	34	0.000035840137	0
686	34	0.000035840137	0
688	34	0.000035840137	0
690	34	0.000035840137	0
692	34	0.000035840137	0
694	34	0.000035840137	0
696	34	0.000035840137	0
698	34	0.000035840137	0
700	34	0.000035840137	0
702	34	0.000035840137	0
704	34	0.000035840137	0
706	34	0.000035840137	0
708	34	0.000035840137	0
710	34	0.000035840137	0
712	34	0.000035840137	0
714	34	0.000035840137	0
716	34	0.000035840137	0
718	34	0.000035840137	0
720	34	0.000035840137	0
722	34	0.000035840137	0
724	34	0.000035840137	0
726	34	0.000035840137	0
728	34	0.000035840137	0
730	34	0.000035840137	0
732	34	0.000035840137	0
734	34	0.000035840137	0
736	34	0.000035840137	0
738	34	0.000035840137	0
740	34	0.000035840137	0
742	34	0.000035840137	0
744	34	0.000035840137	0
746	34	0.000035840137	24553477.571807
748	34	0.000035840137	24553477.571807
750	34	0.000035840137	0
752	34	0.000035840137	0
754	34	0.000035840137	0
756	34	0.000035840137	24553477.571807
761	34	0.000035840137	24553477.571807
763	34	0.000035840137	24553477.571807
766	34	0.000035840137	0
767	34	0.000035840137	0
769	34	0.000035840137	24553477.571807
771	34	0.000035840137	24553477.571807
773	34	0.000035840137	24553477.571807
775	34	0.000035840137	24553477.571807
777	34	0.000035840137	0
779	34	0.000035840137	0
781	34	0.000035840137	0
783	34	0.000035840137	0
785	34	0.000035840137	0
787	34	0.000035840137	0
789	34	0.000035840137	0
791	34	0.000035840137	0
793	34	0.000035840137	0
795	34	0.000035840137	0
797	34	0.000035840137	0
799	34	0.000035840137	0
801	34	0.000035840137	24553477.571807
803	34	0.000035840137	26339185.031575
805	34	0.000035840137	0
807	34	0.000035840137	0
810	34	0.000035840137	26339185.031575
812	34	0.000035840137	26339185.031575
814	34	0.000035840137	0
816	34	0.000035840137	0
818	34	0.000035840137	26339185.031575
819	34	0.000035840137	26.339185031575
823	34	0.000035840137	0
825	34	0.000035840137	0
827	34	0.000035840137	0
829	34	0.000035840137	0
831	34	0.000035840137	0
833	34	0.000035840137	0
835	34	0.000035840137	0
837	34	0.000035840137	0
839	34	0.000035840137	0
841	34	0.000035840137	0
842	34	0.000035840137	0
848	34	0.000035840137	0
850	34	0.000035840137	0
852	34	0.000035840137	0
854	34	0.000035840137	0
856	34	0.000035840137	0
858	34	0.000035840137	0
860	34	0.000035840137	0
862	34	0.000035840137	0
864	34	0.000035840137	0
866	34	0.000035840137	0
868	34	0.000035840137	0
870	34	0.000035840137	0
872	34	0.000035840137	23660623.841923
874	34	0.000035840137	20535635.78733
876	34	0.000035840137	0
878	34	0.000035840137	0
880	34	0.000035840137	0
882	34	0.000035840137	0
884	34	0.000035840137	24553477.571807
886	34	0.000035840137	23660623.841923
888	34	0.000035840137	0
890	34	0.000035840137	0
892	34	0.000035840137	0
894	34	0.000035840137	0
903	34	0.000035840137	0
905	34	0.000035840137	0
908	34	0.000035840137	0
909	34	0.000035840137	0
911	34	0.000035840137	0
913	34	0.000035840137	0
915	34	0.000035840137	0
917	34	0.000035840137	0
919	34	0.000035840137	0
921	34	0.000035840137	0
923	34	0.000035840137	24553477.571807
925	34	0.000035840137	24553477.571807
927	34	0.000035840137	0
929	34	0.000035840137	0
931	34	0.000035840137	0
933	34	0.000035840137	0
935	34	0.000035840137	24553477.571807
937	34	0.000035840137	24553477.571807
939	34	0.000035840137	0
941	34	0.000035840137	0
943	34	0.000035840137	0
945	34	0.000035840137	0
947	34	0.000035840137	0
949	34	0.000035840137	0
952	34	0.000035840137	0
954	34	0.000035840137	0
956	34	0.000035840137	0
958	34	0.000035840137	0
960	34	0.000035840137	0
961	34	0.000035840137	0
965	34	0.000035840137	26339185.031575
967	34	0.000035840137	24553477.571807
969	34	0.000035840137	0
971	34	0.000035840137	0
973	34	0.000035840137	0
975	34	0.000035840137	0
977	34	0.000035840137	26339185.031575
979	34	0.000035840137	26339185.031575
981	34	0.000035840137	0
983	34	0.000035840137	0
984	34	0.000035840137	26339185.031575
1002	34	0.000035840137	14285659.678142
1004	34	0.000035840137	14285659.678142
1005	34	0.0000193	1.93e-05
1007	34	0.0000193	1.93e-05
1008	34	0.0000193	0
1009	34	0.0000193	0
1013	34	0.000035840137	0
1015	34	0.000035840137	0

